17

C -1.021142 -0.417776 0.772622
C 0.321814 -0.894089 0.381916
C 1.363296 -0.004678 0.215682
O 2.559517 -0.619784 -0.173657
O 1.370984 1.236494 0.374876
C 3.662595 0.241396 -0.352009
H 3.471004 0.988986 -1.123024
H 4.496231 -0.387480 -0.658053
H 3.922612 0.762143 0.570590
H -1.569600 -1.140581 1.378967
H -0.963208 0.522797 1.321166
H 0.481691 -1.941019 0.167721
S -2.103778 -0.084279 -0.694445
C -3.625796 0.416747 0.139063
H -3.458165 1.308749 0.740991
H -4.374866 0.636792 -0.618350
H -3.993858 -0.385210 0.777715