16

C -2.088236 -0.559327 -0.117311
C -1.173400 0.409488 0.194917
C 0.165717 0.022546 0.711318
O -1.969358 -1.831206 -0.033272
H 0.532826 0.713664 1.475398
H 0.144345 -0.987481 1.119428
C 2.917060 -0.282987 0.340933
H 3.072588 0.508170 1.072921
H 2.843618 -1.240922 0.853491
H 3.765749 -0.308710 -0.338955
S 1.428250 0.034702 -0.628735
H -3.059344 -0.163550 -0.482730
C -1.454308 1.871485 0.000777
H -1.363486 2.442057 0.933019
H -2.467571 2.022495 -0.377883
H -0.766853 2.341455 -0.712555