17

C -1.069403 -0.593244 0.945556
C 0.118795 0.271835 0.846925
C 1.254007 -0.164245 0.193318
O 2.284055 0.783685 0.173644
O 1.466365 -1.268158 -0.355042
C 3.484180 0.374073 -0.444844
H 4.169608 1.216043 -0.371461
H 3.921456 -0.491980 0.054284
H 3.332428 0.122023 -1.495249
H -1.658537 -0.394318 1.841585
H -0.800055 -1.649549 0.941577
H 0.090020 1.278173 1.238579
S -2.305348 -0.490927 -0.457398
C -2.736445 1.250802 -0.305730
H -1.837088 1.860517 -0.381043
H -3.413748 1.508555 -1.116610
H -3.228685 1.445820 0.646539