12

C -2.476962 -0.006325 0.000003
C -1.316811 -0.645028 -0.000009
C -0.040162 0.110489 0.000002
O 1.009225 -0.713357 -0.000013
O 0.061530 1.312988 0.000021
C 2.294302 -0.087679 -0.000003
H 3.018354 -0.894679 -0.000013
H 2.411071 0.529802 -0.887953
H 2.411069 0.529779 0.887962
H -2.508004 1.075665 0.000020
H -3.415308 -0.542627 -0.000005
H -1.245427 -1.723726 -0.000026