16

C -1.668595 0.665640 0.425978
C -0.860345 -0.426995 0.249741
C 0.406965 -0.541433 1.004051
O -2.772191 0.953715 -0.151915
H 0.456060 0.190401 1.812304
H 0.564669 -1.535271 1.433210
C 1.658696 1.368886 -0.587140
H 0.705627 1.412255 -1.111708
H 1.642734 2.071411 0.245489
H 2.464138 1.636058 -1.267346
S 1.956372 -0.306439 -0.001182
H -1.296041 1.380926 1.190452
C -1.180339 -1.491547 -0.757491
H -2.206382 -1.380245 -1.107898
H -0.523495 -1.452465 -1.634956
H -1.070025 -2.497080 -0.336144