16

C -1.553788 -0.874142 0.000006
C -1.058044 0.396068 -0.000004
C 0.402268 0.743107 -0.000048
O -2.781671 -1.258735 0.000019
H 0.660922 1.350963 -0.876380
H 0.661029 1.350892 0.876298
C 3.083992 0.263676 0.000048
H 3.154493 0.887857 0.889331
H 3.905052 -0.449485 0.000023
H 3.154521 0.887945 -0.889172
S 1.542400 -0.671883 -0.000026
H -0.787050 -1.673338 0.000005
C -1.965881 1.592882 0.000013
H -1.809560 2.232935 -0.876888
H -3.006028 1.269877 -0.000085
H -1.809697 2.232813 0.877029