16

C 1.839392 0.161371 0.057582
C 0.837178 -0.691971 0.458993
C -0.514698 -0.194370 0.814903
O 1.744500 1.431484 -0.055193
H 1.024194 -1.757160 0.499193
H -0.982326 -0.766771 1.617966
H -0.471022 0.855197 1.107174
C -3.177773 0.349517 0.154733
H -3.023931 1.367964 0.508321
H -3.478431 -0.281438 0.989999
H -3.969114 0.349343 -0.591586
S -1.674267 -0.289029 -0.614624
C 3.197099 -0.439294 -0.278061
H 3.223710 -1.522382 -0.161586
H 3.461403 -0.188040 -1.307668
H 3.960590 0.004364 0.364805