16

C -1.594231 -0.023062 0.130894
C -0.610517 -0.929647 -0.191544
C 0.642447 -1.045653 0.587993
O -1.574597 0.800674 1.109540
H -0.734764 -1.562413 -1.061618
H 0.526936 -0.580426 1.566424
H 0.967820 -2.077190 0.733976
C 1.548936 1.430218 -0.314502
H 1.527528 1.909009 0.662677
H 0.545070 1.422696 -0.737351
H 2.222877 1.976256 -0.970762
S 2.135787 -0.267989 -0.190811
C -2.842004 0.013255 -0.741619
H -2.814542 -0.710232 -1.556016
H -3.723149 -0.180233 -0.125727
H -2.961375 1.014301 -1.162277