16

C -1.940682 -0.094426 0.015405
C -0.868079 -0.903273 0.314278
C 0.475207 -0.453312 0.766411
O -3.088507 -0.508935 -0.369362
H -1.001294 -1.971317 0.172064
H 0.449971 0.450801 1.374671
H 0.977788 -1.225798 1.350268
C 3.120241 0.307493 0.231727
H 3.455235 -0.545933 0.819449
H 2.969622 1.162686 0.888985
H 3.885164 0.554928 -0.500957
S 1.596600 -0.089227 -0.653596
C -1.810860 1.419251 0.142248
H -2.501450 1.777038 0.909135
H -0.808390 1.769814 0.379773
H -2.119151 1.872501 -0.801362