16

C -2.183815 -0.133830 -0.290819
C -1.022022 0.179187 0.363074
C 0.158007 0.755642 -0.329338
O -3.264728 -0.623308 0.173558
H -0.948705 0.007317 1.433961
H -0.133537 1.079784 -1.331124
C 1.775477 -1.220644 0.881305
H 2.170601 -0.493627 1.588379
H 0.847424 -1.639978 1.266017
H 2.503542 -2.018908 0.755892
S 1.497659 -0.485618 -0.739588
H -2.157390 0.087487 -1.381189
C 0.784587 1.929535 0.419192
H 1.639989 2.342270 -0.115038
H 1.118421 1.616058 1.410081
H 0.041540 2.716600 0.557477