16

C -1.993369 -0.092694 0.173908
C -1.002727 0.133431 -0.743480
C 0.269698 0.860144 -0.487598
O -3.090530 -0.729015 0.012647
H -1.120607 -0.291997 -1.736947
H 0.509820 1.513435 -1.330642
C 1.404346 -1.330234 0.873840
H 1.680093 -0.858000 1.814253
H 0.337109 -1.557612 0.873194
H 1.968178 -2.252977 0.759994
S 1.762202 -0.272484 -0.538667
H -1.818751 0.345119 1.175773
C 0.319469 1.692668 0.788282
H 1.259616 2.239122 0.848546
H 0.234427 1.068197 1.677345
H -0.505386 2.406692 0.806277