11

C 0.833395 -0.300960 0.000005
H 0.459425 -1.320761 0.000064
C -0.062330 0.686072 -0.000036
H 0.243512 1.725503 -0.000095
C -1.509582 0.414698 -0.000000
H -2.159499 1.305108 -0.000036
O -2.006005 -0.690078 0.000064
C 2.309102 -0.118985 -0.000026
H 2.747323 -0.603514 0.874603
H 2.747296 -0.603598 -0.874621
H 2.586470 0.932936 -0.000081