26

C 2.186903 -1.089926 -0.477085
C 0.894003 -0.979983 0.225951
C -0.090322 -0.122521 -0.217016
O -1.181044 -0.045483 0.668076
O -0.109795 0.580835 -1.254203
C -2.515407 0.037785 0.145550
C -3.400841 -0.256644 1.351038
C -2.829114 1.435570 -0.383380
C -2.737994 -1.021612 -0.928793
H 2.570283 -2.110443 -0.525133
H 2.106145 -0.708038 -1.494270
H 0.744902 -1.514972 1.153418
H -3.891239 1.509394 -0.624781
H -2.600038 2.179030 0.382100
H -2.238864 1.651102 -1.268638
H -4.453585 -0.209731 1.071040
H -3.186825 -1.250693 1.744600
H -3.218425 0.475598 2.138565
H -2.108445 -0.827922 -1.795175
H -2.502498 -2.011161 -0.533419
H -3.782080 -1.017042 -1.244156
C 2.937593 1.489140 0.277705
H 1.924761 1.465100 0.678065
H 3.563677 2.121328 0.903265
H 2.919009 1.887775 -0.735078
S 3.613187 -0.179563 0.304674