21

C 2.972020 -0.888454 0.000959
C 1.657588 -0.715065 -0.000644
C 1.096064 0.666021 -0.000463
O -0.221986 0.869902 -0.000744
O 1.810934 1.641055 -0.000175
C -1.310778 -0.106578 -0.000012
C -1.298708 -0.938737 -1.275503
C -1.296968 -0.938928 1.275341
C -2.540428 0.793407 0.000887
H 3.643146 -0.040265 0.002457
H 3.401711 -1.880357 0.000821
H 0.997835 -1.564131 -0.002125
H -0.478879 -1.652558 1.320077
H -1.237130 -0.283017 2.143583
H -2.228957 -1.500445 1.335195
H -2.230604 -1.500553 -1.334000
H -1.240414 -0.282677 -2.143734
H -0.480453 -1.652088 -1.321631
H -3.443281 0.184627 0.001348
H -2.543106 1.426777 0.887122
H -2.544196 1.427039 -0.885156