21

C 3.473369 0.195015 -0.000000
C 2.268878 0.745238 0.000000
C 1.047083 -0.104774 -0.000000
O -0.046208 0.654047 0.000001
O 1.057747 -1.312329 -0.000001
C -1.389415 0.075262 0.000000
C -2.288478 1.301331 0.000002
C -1.605051 -0.742835 -1.264997
C -1.605051 -0.742838 1.264996
H 3.584402 -0.881767 -0.000001
H 4.369460 0.799456 0.000000
H 2.119222 1.815928 0.000001
H -2.655135 -1.029248 -1.323432
H -1.364673 -0.144117 -2.143926
H -0.996588 -1.642712 -1.266947
H -3.332427 0.990762 0.000001
H -2.104093 1.907821 0.886324
H -2.104093 1.907823 -0.886320
H -2.655135 -1.029250 1.323431
H -0.996588 -1.642715 1.266944
H -1.364672 -0.144121 2.143926