26

C 2.215100 -0.909691 -0.740487
C 0.895754 -0.331977 -1.062235
C -0.233243 -0.754820 -0.397143
O -1.416350 -0.165386 -0.878355
O -0.318212 -1.604391 0.519744
C -2.398568 0.287989 0.066654
C -1.736188 1.082617 1.187714
C -3.304466 1.201856 -0.750019
C -3.217426 -0.872954 0.626022
H 2.125740 -1.937503 -0.388054
H 2.898774 -0.895897 -1.590239
H 0.815604 0.458115 -1.794012
H -4.108724 1.595910 -0.128085
H -2.733496 2.037593 -1.155460
H -3.746657 0.648158 -1.579162
H -2.498670 1.507312 1.841700
H -1.084148 0.442042 1.779489
H -1.145441 1.900136 0.770765
H -2.595716 -1.516215 1.241464
H -4.047267 -0.487712 1.221676
H -3.629785 -1.462568 -0.194602
C 3.303672 1.558683 -0.070953
H 2.314189 1.951404 -0.301231
H 3.786166 2.205349 0.658255
H 3.905280 1.532674 -0.978942
S 3.154552 -0.086924 0.644250