26

C 1.991132 0.715458 -0.979528
C 1.126388 1.568758 -0.145519
C -0.197507 1.298035 0.153114
O -0.692281 0.171775 -0.511053
O -0.964066 1.954401 0.896437
C -1.933627 -0.439394 -0.138658
C -1.996866 -1.682559 -1.019968
C -1.921676 -0.858546 1.328711
C -3.124532 0.462524 -0.454941
H 1.414045 0.094148 -1.660819
H 2.712725 1.284704 -1.567422
H 1.559341 2.435004 0.337885
H -2.838323 -1.401473 1.564753
H -1.074271 -1.519568 1.517786
H -1.845255 0.011545 1.975453
H -2.909733 -2.244014 -0.819322
H -1.139432 -2.327442 -0.824387
H -1.986113 -1.399875 -2.073278
H -4.053261 -0.095640 -0.323013
H -3.130087 1.334748 0.190988
H -3.069965 0.792255 -1.494010
C 1.872837 -1.370464 0.882276
H 1.264129 -1.995299 0.230451
H 2.382829 -1.993502 1.613768
H 1.228079 -0.655911 1.393335
S 3.114949 -0.468248 -0.056135