22

C 1.805886 -0.197183 -0.023541
C 0.652561 0.547838 0.092503
C -0.537675 0.109234 0.887138
O 2.866050 0.172426 -0.651108
H -0.241276 -0.527351 1.719000
C -1.842270 -0.247572 -1.618405
H -2.424841 -0.900885 -2.264298
H -2.345755 0.715016 -1.542672
H -0.849032 -0.110775 -2.043082
S -1.707267 -1.055901 -0.014915
C 1.910631 -1.579739 0.611963
H 2.693572 -1.567497 1.374437
H 0.993702 -1.960340 1.054950
H 2.230827 -2.283954 -0.158608
C -1.354734 1.266797 1.456786
H -0.708990 1.931911 2.034402
H -1.813882 1.858636 0.664186
H -2.147224 0.899097 2.107044
C 0.580742 1.887895 -0.596594
H 0.629193 2.736568 0.097163
H 1.421203 1.979900 -1.282465
H -0.340474 2.021077 -1.171645