22

C 1.813051 -0.534569 0.188810
C 0.862337 0.445426 0.012412
C -0.513470 0.190679 0.547015
O 1.602504 -1.673118 0.752550
H -0.460061 -0.634872 1.255730
C -3.148212 -0.748314 -0.026888
H -3.758208 -1.342185 -0.704549
H -2.992361 -1.314341 0.891126
H -3.674177 0.175985 0.201553
S -1.563950 -0.441179 -0.842551
C 3.249087 -0.333456 -0.280714
H 3.914308 -0.564407 0.553468
H 3.474290 -1.053202 -1.071599
H 3.486660 0.663288 -0.642646
C -1.169431 1.399980 1.202122
H -0.525863 1.775323 2.001148
H -1.322640 2.205705 0.483181
H -2.135275 1.148536 1.640380
C 1.057957 1.754326 -0.709894
H 1.062491 2.623213 -0.040120
H 1.982236 1.785156 -1.281631
H 0.243858 1.931166 -1.422807