22

C -1.458115 1.732865 0.222941
C -0.655907 1.024827 1.078796
C 0.122914 -0.218439 0.789867
O -1.775475 1.511903 -0.993779
H 0.223121 -0.803675 1.711456
C 1.724336 1.146421 -1.058391
H 1.514055 0.506549 -1.913923
H 2.653949 1.683119 -1.234323
H 0.907274 1.853872 -0.921504
S 1.913118 0.181866 0.450879
H -1.903936 2.632045 0.699482
H -0.515857 1.450223 2.066538
C -0.466681 -1.158200 -0.276384
H -0.498860 -0.614995 -1.221144
C 0.355833 -2.432185 -0.447424
H 0.460748 -2.950484 0.510594
H -0.139020 -3.113303 -1.141524
H 1.355566 -2.224949 -0.824797
C -1.903134 -1.522091 0.096365
H -1.932035 -1.993351 1.083456
H -2.532778 -0.635830 0.110016
H -2.313791 -2.233486 -0.622785