22

C -0.564340 1.878985 0.272468
C -0.169342 1.029292 -0.722716
C 0.142327 -0.429650 -0.559314
O -0.812737 3.132057 0.202199
H 0.073135 -0.901054 -1.544109
C -2.570680 -1.065700 -0.466530
H -3.386254 -1.582036 0.035113
H -2.774135 0.002726 -0.495090
H -2.477103 -1.446125 -1.482974
S -1.067145 -1.375862 0.470545
H -0.696276 1.397386 1.262619
H -0.058315 1.432458 -1.725971
C 1.552208 -0.781652 -0.024096
H 1.618250 -1.874269 0.007575
C 2.615912 -0.273620 -0.992731
H 2.591834 0.816377 -1.040427
H 3.611231 -0.579450 -0.666764
H 2.453227 -0.660326 -2.000454
C 1.818477 -0.246142 1.377838
H 1.772826 0.843935 1.379727
H 1.088723 -0.614806 2.099791
H 2.811717 -0.546546 1.715129