22

C 0.458998 -2.233533 0.007936
C -0.051461 -1.248743 0.812232
C -0.070112 0.211483 0.518015
O 1.037198 -2.143571 -1.124532
H -0.221508 0.759520 1.454137
C -2.866205 -0.059650 0.407072
H -3.803932 0.178970 -0.090220
H -2.732547 -1.138726 0.436520
H -2.894421 0.330058 1.424283
S -1.540866 0.714952 -0.532420
H 0.352309 -3.252439 0.437284
H -0.534545 -1.570343 1.727250
C 1.184568 0.797679 -0.156390
H 1.248838 0.376212 -1.160394
C 1.124816 2.322225 -0.248295
H 0.996120 2.756826 0.747237
H 2.053435 2.714545 -0.665568
H 0.303415 2.670175 -0.872821
C 2.439884 0.382052 0.606010
H 2.381457 0.709674 1.647927
H 2.562181 -0.698423 0.589748
H 3.322546 0.844215 0.160117