22

C -2.372532 -0.002674 -0.050397
C -1.215286 -0.639798 -0.408699
C 0.148821 -0.042451 -0.524209
O -3.548884 -0.500095 0.035668
H 0.562784 -0.246285 -1.517956
C 1.397585 -2.517907 -0.193044
H 2.178335 -3.106207 0.283923
H 0.443576 -3.023026 -0.058650
H 1.619107 -2.431878 -1.256273
S 1.392009 -0.891688 0.583303
H -2.278794 1.073729 0.185038
H -1.293529 -1.695182 -0.657371
C 0.256858 1.474808 -0.290581
H -0.598079 1.913561 -0.810689
C 0.174946 1.875364 1.182828
H 1.102189 1.620805 1.701051
H 0.033367 2.953172 1.274674
H -0.645676 1.374805 1.694390
C 1.520925 2.055590 -0.919988
H 1.560895 1.847575 -1.990103
H 1.553168 3.137717 -0.783847
H 2.413671 1.631389 -0.457839