22

C -2.558761 -0.266258 0.390151
C -1.304541 0.169155 0.731347
C -0.124037 -0.004601 -0.161284
O -2.940897 -0.852931 -0.676055
H -0.486003 -0.259892 -1.159714
C 2.182425 -1.607705 -0.728081
H 2.935585 -0.851983 -0.513024
H 2.629360 -2.593081 -0.612145
H 1.838473 -1.496965 -1.755997
S 0.785216 -1.507853 0.415433
H -3.332590 -0.064093 1.158847
H -1.167372 0.631980 1.700847
C 0.798807 1.219920 -0.291930
H 1.613269 0.945484 -0.968280
C 0.038595 2.372345 -0.945124
H -0.759169 2.723000 -0.288914
H 0.708781 3.209141 -1.148093
H -0.414394 2.061908 -1.888508
C 1.415211 1.665253 1.028944
H 0.642159 1.992819 1.726469
H 1.976628 0.857316 1.498847
H 2.092800 2.504819 0.867045