22

C 2.096709 -1.376211 0.281680
C 0.852486 -0.976812 0.697296
C -0.092419 -0.238842 -0.178860
O 2.657521 -1.219048 -0.854043
H 0.312657 -0.241697 -1.193049
C 1.510978 2.026813 -0.009146
H 1.753596 2.010327 -1.070310
H 1.657217 3.032404 0.378889
H 2.155363 1.326919 0.520740
S -0.208410 1.570986 0.265163
H 2.677239 -1.916763 1.057656
H 0.567681 -1.180130 1.722888
C -1.516173 -0.823370 -0.234443
H -1.368029 -1.872807 -0.507309
C -2.237036 -0.790876 1.110485
H -2.430550 0.237586 1.422258
H -3.198384 -1.301474 1.037377
H -1.655146 -1.278054 1.892284
C -2.379550 -0.179250 -1.316565
H -2.639323 0.847082 -1.053648
H -1.859228 -0.158808 -2.275739
H -3.308682 -0.736696 -1.444982