22

C -1.150831 1.907229 0.648074
C -0.294913 0.856481 0.852243
C 0.144352 -0.047676 -0.239081
O -1.683947 2.313234 -0.439019
H -0.241323 0.345424 -1.181885
C -2.343466 -1.307104 -0.219652
H -2.593625 -0.960293 -1.221027
H -2.932939 -2.190982 0.013154
H -2.558155 -0.520108 0.502243
S -0.602580 -1.749463 -0.106493
H -1.394538 2.475719 1.569322
H 0.037928 0.656681 1.864107
C 1.666025 -0.235577 -0.390686
H 1.823674 -0.983316 -1.174606
C 2.309675 1.069373 -0.850880
H 2.174636 1.844144 -0.094484
H 3.379846 0.934257 -1.015677
H 1.863092 1.423876 -1.781305
C 2.337853 -0.736722 0.884626
H 2.254386 0.008008 1.677998
H 1.888876 -1.664311 1.241646
H 3.398815 -0.919585 0.708696