22

C -2.501080 0.010601 -0.327930
C -1.303547 -0.014386 0.331375
C 0.004059 0.120545 -0.363650
O -3.684398 -0.097006 0.138257
H -0.163030 0.451045 -1.394836
C 1.227576 -1.988613 1.044088
H 1.564389 -3.022683 1.036781
H 2.016919 -1.363610 1.459756
H 0.334415 -1.911346 1.663124
S 0.846407 -1.523410 -0.653603
H -2.404178 0.150750 -1.427802
H -1.293232 -0.130264 1.412875
C 0.955638 1.128361 0.313551
H 1.071040 0.817594 1.357539
C 2.338037 1.200546 -0.328031
H 2.247604 1.402318 -1.398932
H 2.920147 2.008792 0.116989
H 2.894529 0.272538 -0.211923
C 0.320793 2.519356 0.306291
H 0.166311 2.854691 -0.723221
H -0.644432 2.521076 0.807817
H 0.973343 3.241242 0.799258