22

C -1.930909 -0.936274 -0.368427
C -1.197327 -0.241456 0.554169
C 0.260405 0.045724 0.452374
O -3.182817 -1.187521 -0.363422
H 0.668489 0.197456 1.456868
C -0.588412 2.736941 0.402507
H -0.457363 3.743817 0.011745
H -1.598636 2.392194 0.194108
H -0.425998 2.750990 1.479748
S 0.623609 1.683610 -0.409816
H -1.350179 -1.340232 -1.222750
H -1.722986 0.189120 1.401408
C 1.136502 -1.020972 -0.232144
H 0.802826 -1.130029 -1.267587
C 2.615071 -0.630754 -0.249318
H 2.960962 -0.418964 0.766116
H 3.216656 -1.450372 -0.644319
H 2.808909 0.249698 -0.859638
C 0.987948 -2.369576 0.471287
H -0.034831 -2.735724 0.432252
H 1.643687 -3.110127 0.011036
H 1.273595 -2.277215 1.522767