20

C 0.962432 0.731130 0.419627
C -0.417351 0.595028 -0.092916
C -1.345409 -0.184093 0.566497
O -2.640897 -0.291339 0.050492
O -1.194100 -0.837637 1.626835
C -2.965388 0.375219 -1.146154
H -2.848941 1.457422 -1.048415
H -2.346472 0.031085 -1.978478
H -4.007593 0.147513 -1.360367
H 1.004803 0.383056 1.451177
C 1.511245 2.150908 0.322983
H -0.651902 1.099734 -1.018030
H 2.549293 2.212024 0.654263
H 1.460182 2.507068 -0.707788
H 0.909839 2.819270 0.939590
S 2.217831 -0.322096 -0.490965
C 1.456794 -1.944431 -0.330822
H 1.959467 -2.622000 -1.017558
H 1.548826 -2.326543 0.683972
H 0.403234 -1.865859 -0.596830