15

C 1.664156 -0.400580 -0.000004
C 0.836520 0.640264 0.000004
C -0.633754 0.524921 0.000005
O -1.078546 -0.734111 -0.000004
O -1.375323 1.480870 0.000013
C -2.497419 -0.892965 -0.000005
H -2.676728 -1.962471 -0.000011
H -2.928733 -0.435156 0.887702
H -2.928733 -0.435147 -0.887708
H 1.241780 -1.399512 -0.000011
C 3.149552 -0.295272 -0.000005
H 1.203816 1.658578 0.000011
H 3.562600 -0.799937 -0.875125
H 3.480016 0.741313 0.000003
H 3.562601 -0.799950 0.875107