22

C 2.889364 0.153958 1.314560
C 1.826087 -0.667217 0.586746
C 1.396167 0.015706 -0.710929
C 0.179679 0.656733 -0.792860
C -0.859183 0.768561 0.255592
C -1.526028 2.141017 0.287396
O 2.259970 -0.029672 -1.655913
H 3.278416 -0.370589 2.188099
H 3.722351 0.367808 0.645122
H 2.473639 1.106014 1.650493
H 0.988055 -0.859324 1.255195
H 2.243912 -1.638399 0.310327
H -0.461885 0.548353 1.245305
H -1.945216 2.379601 -0.691829
H -2.328632 2.188090 1.024949
H -0.784465 2.902478 0.530143
C -1.397720 -1.999349 0.063371
H -1.082246 -2.262906 1.071524
H -0.524208 -1.919715 -0.584413
H -2.061876 -2.772449 -0.316509
S -2.286271 -0.435479 0.040135
H -0.067457 1.119627 -1.746519