22

C -2.583088 -1.321078 1.104950
C -1.863115 -1.046094 -0.215009
C -1.718065 0.456100 -0.458439
C -0.535807 1.078527 -0.127089
C 0.665322 0.424758 0.466247
C 1.454404 1.370922 1.361867
O -2.753696 1.042016 -0.929948
H -2.773031 -2.385325 1.250005
H -1.987618 -0.966425 1.948423
H -3.540518 -0.799522 1.127603
H -2.452915 -1.448398 -1.041055
H -0.898130 -1.554182 -0.227629
H 0.398314 -0.464288 1.040898
H 1.744440 2.262517 0.803525
H 0.831457 1.682556 2.202488
H 2.356184 0.907336 1.761718
C 3.062702 -1.062247 -0.000401
H 2.631314 -1.703547 0.767964
H 3.759951 -0.364798 0.458434
H 3.603294 -1.684327 -0.710775
S 1.745203 -0.210725 -0.901955
H -0.460542 2.148553 -0.303479