22

C 3.310837 0.670106 -0.559943
C 2.598580 -0.672258 -0.411222
C 1.270119 -0.520287 0.325405
C 0.120668 -0.848596 -0.357176
C -1.228585 -0.725896 0.237984
C -2.159205 -1.884167 -0.104404
O 1.337420 -0.086429 1.527212
H 4.281728 0.561629 -1.044945
H 2.709705 1.357574 -1.159131
H 3.465014 1.124500 0.418069
H 3.233276 -1.351043 0.166649
H 2.442504 -1.123772 -1.392619
H -1.133059 -0.626885 1.319282
H -2.251799 -1.988600 -1.187338
H -1.747803 -2.814389 0.288356
H -3.158342 -1.743743 0.311669
C -0.952612 2.075286 0.147543
H -1.256784 3.007981 -0.322601
H -0.913305 2.210198 1.226381
H 0.030238 1.778625 -0.216823
S -2.146624 0.807656 -0.306777
H 0.186421 -1.188261 -1.385330