22

C 2.583049 -1.321038 1.105014
C 1.863054 -1.046136 -0.214951
C 1.718031 0.456045 -0.458471
C 0.535797 1.078543 -0.127135
C -0.665375 0.424879 0.466256
C -1.454382 1.371152 1.361825
O 2.753667 1.041900 -0.930043
H 2.772995 -2.385276 1.250129
H 3.540478 -0.799479 1.127616
H 1.987596 -0.966334 1.948478
H 0.898064 -1.554216 -0.227520
H 2.452851 -1.448493 -1.040974
H -0.398398 -0.464140 1.040956
H -0.831472 1.682674 2.202514
H -1.744208 2.262804 0.803472
H -2.356288 0.907728 1.761582
C -3.062453 -1.062598 -0.000361
H -3.759655 -0.365351 0.458857
H -3.603181 -1.684494 -0.710793
H -2.630824 -1.704096 0.767698
S -1.745262 -0.210636 -0.901947
H 0.460581 2.148564 -0.303580