22

C -3.371784 1.040947 -0.261113
C -2.697094 -0.279341 -0.624518
C -1.419544 -0.502700 0.179470
C -0.234568 -0.612669 -0.511308
C 1.061661 -0.850407 0.168111
C 2.040602 -1.655876 -0.678178
O -1.550698 -0.567783 1.449896
H -4.306296 1.179634 -0.806116
H -3.590192 1.072490 0.805698
H -2.716888 1.882934 -0.495465
H -2.482979 -0.308448 -1.694480
H -3.383310 -1.103144 -0.404652
H 0.882806 -1.358608 1.117356
H 2.247411 -1.142508 -1.619272
H 2.986680 -1.816350 -0.161647
H 1.605453 -2.626235 -0.924015
C 2.064115 1.617087 -0.770972
H 2.801925 1.166194 -1.431833
H 2.382126 2.628141 -0.526704
H 1.097147 1.657455 -1.271255
S 1.903447 0.705991 0.774743
H -0.233771 -0.527408 -1.591621