22

C -3.371697 1.040895 0.261186
C -2.697061 -0.279471 0.624428
C -1.419479 -0.502769 -0.179531
C -0.234540 -0.612825 0.511279
C 1.061723 -0.850459 -0.168069
C 2.040773 -1.655728 0.678297
O -1.550590 -0.567724 -1.449964
H -3.590073 1.072639 -0.805623
H -4.306216 1.179530 0.806191
H -2.716776 1.882825 0.495675
H -2.482996 -0.308718 1.694395
H -3.383284 -1.103229 0.404425
H 0.883022 -1.358750 -1.117305
H 2.247525 -1.142247 1.619339
H 1.605783 -2.626139 0.924215
H 2.986868 -1.816094 0.161755
C 2.063682 1.617285 0.770911
H 2.381819 2.628287 0.526584
H 2.801311 1.166430 1.432003
H 1.096613 1.657753 1.270978
S 1.903407 0.705974 -0.774721
H -0.233790 -0.527650 1.591598