22

C 2.830026 1.086876 -0.475480
C 1.860308 -0.010936 -0.902787
C 1.344622 -0.821546 0.288936
C -0.002958 -1.067472 0.443426
C -1.126612 -0.627656 -0.414173
C -2.200724 -1.699854 -0.575852
O 2.251530 -1.260303 1.079311
H 3.243564 1.608894 -1.339152
H 2.330411 1.825643 0.154349
H 3.650777 0.659456 0.097300
H 2.387154 -0.706535 -1.564197
H 1.048536 0.424921 -1.482936
H -0.789434 -0.316897 -1.401370
H -2.568935 -2.015487 0.402046
H -3.048402 -1.342870 -1.162785
H -1.775369 -2.572349 -1.072296
C -0.705597 2.048079 0.352949
H -0.371639 2.358810 -0.636388
H 0.125298 1.589362 0.888285
H -1.057459 2.918648 0.901980
S -2.055769 0.865882 0.247473
H -0.288826 -1.648223 1.319004