22

C 2.481081 1.746048 0.060115
C 1.905989 0.573006 0.851282
C 1.725300 -0.657248 -0.035956
C 0.469029 -1.184480 -0.236758
C -0.818379 -0.704642 0.343504
C -1.859227 -1.814484 0.412517
O 2.800552 -1.120391 -0.553454
H 2.659487 2.611497 0.699492
H 3.424322 1.462666 -0.404969
H 1.790533 2.047380 -0.730147
H 0.972016 0.878110 1.321922
H 2.604818 0.303492 1.648710
H -0.688890 -0.283773 1.342142
H -1.498411 -2.612827 1.063866
H -2.813307 -1.462737 0.804401
H -2.028374 -2.234536 -0.580308
C -2.941896 1.204522 0.228085
H -2.720036 1.285445 1.292076
H -3.761145 0.504468 0.080269
H -3.243722 2.182727 -0.140498
S -1.454216 0.708784 -0.674799
H 0.394370 -2.035674 -0.909275