22

C -2.476803 -1.485836 -0.290213
C -1.989217 -0.159140 -0.870189
C -1.497954 0.765671 0.240116
C -0.163097 1.094379 0.318698
C 0.925697 0.686860 -0.609057
C 2.116534 1.637378 -0.531274
O -2.399204 1.161747 1.058863
H -2.900228 -2.131846 -1.060335
H -1.648631 -2.018868 0.180881
H -3.239567 -1.306532 0.466668
H -2.821147 0.341129 -1.373775
H -1.218290 -0.351256 -1.615731
H 0.586495 0.639089 -1.644693
H 2.905326 1.352706 -1.226195
H 1.793963 2.654492 -0.761466
H 2.533840 1.645113 0.477448
C 1.853450 -1.090021 1.386402
H 0.959171 -0.753778 1.909630
H 2.078386 -2.114572 1.673923
H 2.695832 -0.454927 1.654766
S 1.544708 -1.074524 -0.386658
H 0.141498 1.701914 1.167594