22

C -3.310876 0.670196 -0.560158
C -2.598703 -0.672160 -0.410955
C -1.270187 -0.520108 0.325472
C -0.120789 -0.848323 -0.357231
C 1.228524 -0.725919 0.237867
C 2.158821 -1.884405 -0.104600
O -1.337333 -0.086369 1.527373
H -4.281594 0.561617 -1.045487
H -3.465453 1.124849 0.417665
H -2.709525 1.357532 -1.159270
H -2.442748 -1.124048 -1.392200
H -3.233405 -1.350685 0.167204
H 1.132952 -0.626999 1.319168
H 2.251126 -1.988968 -1.187552
H 3.158091 -1.744239 0.311236
H 1.747172 -2.814445 0.288319
C 0.952907 2.075316 0.147377
H 1.257312 3.007883 -0.322858
H 0.913258 2.210424 1.226179
H -0.029871 1.778741 -0.217266
S 2.146864 0.807479 -0.306584
H -0.186658 -1.187941 -1.385399