22

C -2.481115 1.745927 0.060036
C -1.905640 0.573078 0.851199
C -1.725181 -0.657333 -0.035862
C -0.468970 -1.184733 -0.236612
C 0.818455 -0.704776 0.343488
C 1.859483 -1.814461 0.412293
O -2.800522 -1.120387 -0.553244
H -2.659460 2.611444 0.699337
H -1.790825 2.047251 -0.730458
H -3.424431 1.462343 -0.404758
H -2.604081 0.303674 1.649005
H -0.971466 0.878367 1.321316
H 0.689089 -0.283958 1.342162
H 1.498883 -2.612908 1.063636
H 2.028580 -2.234415 -0.580580
H 2.813553 -1.462590 0.804096
C 2.941543 1.204797 0.228122
H 2.719620 1.285722 1.292101
H 3.243258 2.183031 -0.140478
H 3.760900 0.504855 0.080367
S 1.453968 0.708831 -0.674797
H -0.394383 -2.036015 -0.909022