14

C 1.455132 0.732593 0.000000
C 0.000000 0.669388 0.000000
O 2.073261 1.778579 0.000000
C -0.729093 -0.457990 0.000000
C -2.224660 -0.389977 0.000000
H -2.619612 -0.909325 0.875731
H 2.006431 -0.219031 0.000000
H -2.619612 -0.909325 -0.875731
H -2.588354 0.634490 0.000000
C -0.178195 -1.850977 0.000000
H -0.499841 1.631626 0.000000
H -0.554376 -2.384401 0.875119
H -0.554376 -2.384401 -0.875119
H 0.904553 -1.906487 0.000000