19

C 2.354399 -0.199083 -0.382324
C 1.294497 0.633089 -0.644030
C -0.038010 0.632696 0.046419
O 2.474304 -1.139251 0.467820
C -2.517317 -0.876759 0.261808
H -2.355335 -1.139185 1.305049
H -3.053819 0.068167 0.200606
H -3.128295 -1.650066 -0.200760
S -0.961827 -0.822356 -0.660967
H 3.233889 0.005645 -1.029494
H 1.414714 1.337842 -1.459492
C -0.802057 1.910721 -0.291870
H -0.888236 2.037678 -1.371045
H -1.803399 1.909696 0.140690
H -0.262878 2.770353 0.113556
C 0.065093 0.487284 1.563172
H 0.602629 -0.420217 1.823661
H 0.617618 1.342104 1.961051
H -0.921720 0.482001 2.030048