19

C 2.362704 -0.192802 0.253633
C 1.251731 -0.014609 -0.525867
C -0.091943 0.465374 -0.067648
O 3.516704 -0.609331 -0.104071
C -2.855502 -0.446494 0.173359
H -2.919511 0.146005 1.084094
H -3.215939 0.137053 -0.670841
H -3.490414 -1.323436 0.287520
S -1.173885 -1.055679 -0.102379
H 2.241696 0.067547 1.321917
H 1.324701 -0.262299 -1.582936
C -0.659974 1.496652 -1.042852
H -0.680505 1.098052 -2.057510
H -1.669763 1.806378 -0.768498
H -0.021278 2.382474 -1.033876
C -0.105457 1.044012 1.343404
H -1.109513 1.375599 1.611002
H 0.558047 1.910279 1.393406
H 0.221645 0.315060 2.082178