19

C -2.055218 0.188164 -0.631575
C -0.789274 0.657291 -0.881876
C 0.383445 0.697560 0.042016
O -2.565646 -0.327944 0.415996
C 0.346517 -2.142286 0.037815
H 0.082905 -2.258162 1.087263
H -0.553264 -1.946552 -0.543651
H 0.823671 -3.054702 -0.313697
S 1.506477 -0.789247 -0.209463
H -2.726494 0.295277 -1.510983
H -0.601157 1.008384 -1.891827
C 0.009890 0.766965 1.520629
H -0.543343 -0.113725 1.832383
H 0.908263 0.874727 2.131052
H -0.635263 1.632821 1.688071
C 1.292977 1.878100 -0.302662
H 1.569111 1.863707 -1.357666
H 0.761506 2.809801 -0.100653
H 2.205578 1.865178 0.297060