17

C -2.458273 -0.836351 0.059437
H -2.308520 -1.904489 0.195487
H -3.036795 -0.669299 -0.851739
C -1.163192 -0.082859 -0.014205
H -3.061061 -0.451199 0.885234
C -0.007626 -0.763178 0.011171
C 1.386858 -0.282842 -0.004378
C 1.733347 1.179014 0.107209
O 2.282129 -1.107822 -0.086578
H 2.793752 1.267476 0.326454
H 1.528635 1.679563 -0.840310
H 1.146939 1.674052 0.878466
C -1.335302 1.407977 -0.099059
H -0.058382 -1.845601 0.057038
H -0.584735 1.896169 -0.710734
H -2.316736 1.639892 -0.509837
H -1.295005 1.845447 0.901515