22

C 1.849163 -0.085987 -0.056809
C 0.719226 0.091795 0.711684
C -0.577548 0.680612 0.266486
O 2.005290 0.212333 -1.288785
C -1.644857 -1.962213 0.176209
H -1.988032 -2.780757 -0.452841
H -0.647976 -2.190484 0.552387
H -2.335225 -1.844666 1.009456
S -1.564227 -0.482980 -0.845303
C 3.062848 -0.711281 0.625231
H 2.890891 -0.952856 1.673618
H 3.346087 -1.623085 0.094403
H 3.910742 -0.026116 0.555777
C -1.449410 1.000564 1.479394
H -0.937348 1.731983 2.109393
H -2.411476 1.413888 1.174785
H -1.627966 0.110580 2.084473
H 0.747121 -0.271599 1.732209
C -0.427476 1.937412 -0.591095
H -1.403015 2.304915 -0.919108
H 0.048410 2.717415 0.007507
H 0.201418 1.734383 -1.453537