22

C -1.972311 -0.555236 -0.144727
C -0.618582 -0.529740 -0.374827
C 0.399616 0.550084 -0.053096
O -2.735790 -1.545446 -0.449065
C 2.287636 -1.481173 0.604768
H 3.157727 -2.035459 0.259364
H 2.458617 -1.159585 1.629589
H 1.411940 -2.126305 0.562075
S 2.080017 -0.079373 -0.507817
C -2.706175 0.612412 0.507416
H -3.628878 0.783969 -0.048420
H -2.990645 0.340851 1.527212
H -2.148936 1.543936 0.546420
C 0.264670 1.802699 -0.932552
H -0.705076 2.270698 -0.766634
H 1.041575 2.536985 -0.705901
H 0.331122 1.535759 -1.987757
H -0.226170 -1.411495 -0.871112
C 0.440061 0.961290 1.423428
H -0.505946 1.408842 1.724613
H 0.607269 0.094576 2.062051
H 1.233964 1.688745 1.603637