22

C -1.801872 -0.052346 0.026782
C -0.670628 -0.611036 -0.527478
C 0.693892 -0.710207 0.069675
O -1.931745 0.497771 1.172916
C 0.824352 2.129648 -0.036523
H 1.244607 3.000094 -0.536112
H -0.202802 1.973712 -0.363371
H 0.841709 2.290981 1.039492
S 1.805936 0.698261 -0.510200
C -3.072545 -0.090902 -0.819834
H -2.936441 -0.574370 -1.786632
H -3.856410 -0.616059 -0.269333
H -3.427349 0.929606 -0.981909
C 0.726889 -0.734087 1.595915
H 0.099769 -1.552571 1.957954
H 1.748790 -0.895676 1.944089
H 0.334543 0.185813 2.017926
H -0.750299 -0.986794 -1.541834
C 1.416021 -1.949732 -0.462756
H 2.454339 -1.981416 -0.125233
H 0.908194 -2.844028 -0.096771
H 1.403672 -1.971671 -1.553092