20

C 0.806889 -0.215120 1.073685
C -0.084132 0.775729 0.435670
C -1.337955 0.440061 -0.028516
O -1.682831 -0.907246 0.151493
O -2.183117 1.188599 -0.578630
C -2.995613 -1.259728 -0.223103
H -3.094700 -2.325672 -0.026561
H -3.742790 -0.715708 0.357570
H -3.180370 -1.067864 -1.280554
H 0.260097 -1.006738 1.583257
H 1.478088 0.256830 1.794432
C 0.379642 2.198321 0.254287
H -0.345154 2.922237 0.640450
H 1.319503 2.364458 0.785903
H 0.557218 2.478109 -0.791727
C 2.815419 0.170233 -0.835927
H 3.549568 -0.246177 -1.522102
H 2.114036 0.788672 -1.392126
H 3.327729 0.783051 -0.094576
S 1.948679 -1.196188 -0.043341