20

C -1.061221 -0.284539 1.078202
C 0.116624 0.448510 0.571912
C 1.220177 -0.284478 0.190491
O 2.281984 0.507266 -0.270979
O 1.387604 -1.529091 0.206828
C 3.461798 -0.187419 -0.609330
H 3.290912 -0.910882 -1.407468
H 4.173828 0.563099 -0.947538
H 3.878232 -0.718746 0.248046
H -0.784051 -1.215554 1.572912
H -1.645324 0.319194 1.775718
C 0.080519 1.952577 0.464679
H -0.809972 2.342162 0.964185
H 0.946793 2.427844 0.933862
H 0.047874 2.329948 -0.564680
C -2.684732 0.697731 -0.973402
H -3.085135 1.405519 -0.247881
H -1.786197 1.113462 -1.424602
H -3.428157 0.522527 -1.747882
S -2.309656 -0.878641 -0.186049