20

C -1.753562 1.165645 -0.455093
C -0.223821 1.207305 -0.503598
C 0.239299 -0.003935 0.344756
C -0.946869 -0.919254 0.303443
C -2.094335 -0.290694 -0.114514
H -2.160843 1.810685 0.329641
H -2.220405 1.470400 -1.393348
H 0.198694 2.142927 -0.133589
H 0.113342 1.074893 -1.531877
O -3.292390 -0.712825 -0.197562
H -0.913738 -1.922798 0.712029
C 2.965763 0.373329 -0.414511
H 3.342677 0.549145 0.590435
H 2.599429 1.307749 -0.837885
H 3.780098 0.005068 -1.035100
S 1.663700 -0.879292 -0.439391
C 0.624296 0.423229 1.763101
H -0.209414 0.976484 2.202677
H 0.822741 -0.448920 2.386935
H 1.502714 1.071891 1.779323