20

C 1.787965 -0.520758 -0.934288
C 0.630526 -1.444478 -0.561363
C -0.295811 -0.583850 0.320339
C 0.627500 0.432041 0.886938
C 1.816473 0.517035 0.196193
H 2.745909 -1.035678 -1.019572
H 1.608335 -0.005448 -1.882883
H 0.998993 -2.267982 0.055143
H 0.110036 -1.881562 -1.416387
O 2.816551 1.284040 0.353578
H 0.349676 1.083195 1.706795
C -2.233427 1.492734 0.110775
H -2.770196 1.116605 0.980255
H -1.430532 2.153353 0.433932
H -2.926876 2.052440 -0.513277
S -1.562190 0.151031 -0.884492
C -1.072793 -1.404190 1.341796
H -0.373234 -1.877187 2.034706
H -1.747487 -0.775458 1.925258
H -1.664587 -2.182296 0.856939