23

C -0.849911 0.615040 0.502768
C 0.316162 -0.293639 0.348219
C 1.535483 0.276545 0.047034
O 2.560048 -0.655893 -0.190219
O 1.844015 1.494305 -0.038811
C 3.852168 -0.116167 -0.351505
H 3.910284 0.548822 -1.213867
H 4.170340 0.442684 0.530380
H 4.521108 -0.961711 -0.502017
H -0.482161 1.639354 0.463516
C -1.656003 0.434502 1.786583
C 0.080832 -1.777883 0.303874
H 1.002744 -2.331727 0.470760
H -0.633908 -2.101025 1.067634
H -0.326864 -2.118272 -0.659266
H -1.009887 0.635878 2.642303
H -2.510089 1.112475 1.826567
H -2.031349 -0.583732 1.889406
S -2.024828 0.608586 -0.965437
C -3.155214 -0.748025 -0.581270
H -3.777312 -0.898443 -1.461355
H -2.612630 -1.667050 -0.372091
H -3.796627 -0.504164 0.263038