23

C 0.632106 -0.471027 0.544044
C -0.285681 0.650932 0.211401
C -1.621011 0.449557 -0.068798
O -2.056200 -0.883006 0.062892
O -2.485252 1.295417 -0.414918
C -3.434593 -1.100867 -0.132440
H -3.594204 -2.171660 -0.017997
H -4.038643 -0.567502 0.603916
H -3.758900 -0.790931 -1.126364
H 0.059191 -1.392684 0.607389
C 1.411622 -0.303714 1.847304
C 0.299864 2.015344 -0.019609
H -0.488701 2.765900 -0.054470
H 1.003259 2.311762 0.765797
H 0.852030 2.083663 -0.968177
H 0.704735 -0.253977 2.676721
H 2.094893 -1.136854 2.020392
H 1.994926 0.616932 1.854632
S 1.834992 -0.902026 -0.836156
C 3.248286 0.176212 -0.510814
H 3.922530 0.073630 -1.358837
H 2.941621 1.216450 -0.428400
H 3.775448 -0.120219 0.393566