18

C -1.527943 0.507370 -0.377373
C -0.466410 -0.019315 0.231970
C 0.800884 0.769975 0.172470
O 1.943835 0.123913 -0.107703
O 0.858182 1.956103 0.384644
C 1.940445 -1.165533 -0.725190
H 2.824568 -1.199050 -1.354375
H 1.999308 -1.947156 0.028439
H 1.053600 -1.303417 -1.340328
H -1.400690 1.462374 -0.876147
C -2.885614 -0.104649 -0.450992
C -0.477270 -1.315221 1.004684
H 0.402078 -1.401187 1.640586
H -1.354365 -1.355581 1.648142
H -0.503862 -2.187206 0.350070
H -3.184039 -0.230846 -1.493054
H -2.935294 -1.072777 0.040996
H -3.621986 0.558950 0.006725