23

C 0.922559 0.234411 0.553382
C -0.414884 0.628651 0.032275
C -1.465236 -0.242556 0.227289
O -2.691119 0.205744 -0.292223
O -1.464373 -1.359179 0.807040
C -3.791229 -0.651851 -0.090972
H -3.634513 -1.628778 -0.550276
H -3.997645 -0.804476 0.969577
H -4.646945 -0.166787 -0.557350
H 0.802193 -0.544352 1.305756
C 1.737208 1.386188 1.128292
C -0.527391 1.916988 -0.736069
H 0.244057 1.992913 -1.512600
H -1.493669 1.992789 -1.229740
H -0.411813 2.809959 -0.108724
H 1.176149 1.860421 1.936776
H 2.690822 1.047788 1.533332
H 1.939536 2.140852 0.367361
S 1.871905 -0.590143 -0.823743
C 3.433310 -1.037416 -0.026830
H 4.075502 -0.172780 0.125790
H 3.238275 -1.518017 0.931656
H 3.945472 -1.746266 -0.674420