19

C -2.027540 -0.677132 -0.576330
C -1.114180 0.175088 -0.015000
C 0.277390 0.232479 -0.553080
O -3.253400 -0.867572 -0.264610
C 3.019610 -0.501381 -0.159930
H 2.973240 -0.710641 -1.228280
H 3.408360 0.502059 -0.002090
H 3.692601 -1.217451 0.307300
S 1.389090 -0.720631 0.589970
H -1.623189 -1.274982 -1.421400
C 0.810560 1.646769 -0.752380
H 0.862630 2.178579 0.198590
H 1.803800 1.652329 -1.200550
H 0.137810 2.195858 -1.414440
H 0.319580 -0.306841 -1.502080
C -1.473910 1.055788 1.149110
H -2.443620 0.756368 1.546630
H -1.541720 2.116628 0.880720
H -0.739330 0.989108 1.958590