19

C 1.637405 0.250749 -0.753187
C 0.891074 0.033912 0.372258
C -0.439433 0.691751 0.575118
O 2.772639 -0.247855 -1.080102
C -1.558638 -1.772329 -0.226209
H -0.540973 -2.024726 -0.520272
H -1.723307 -2.063836 0.810209
H -2.264076 -2.302601 -0.862190
S -1.830701 -0.009285 -0.457280
H 1.179003 0.953610 -1.477832
C -0.494953 2.198555 0.329992
H -0.220973 2.441615 -0.695755
H -1.495112 2.595015 0.516792
H 0.205877 2.701690 0.996486
H -0.755354 0.507734 1.604591
C 1.348121 -0.924734 1.437965
H 2.344582 -1.296278 1.200403
H 0.686042 -1.792862 1.541901
H 1.392949 -0.455379 2.427343