19

C -2.196706 0.327898 -0.469861
C -1.024092 0.011249 0.162884
C 0.196647 0.827939 -0.089269
O -3.333608 -0.258707 -0.406329
C 2.499878 -0.878875 0.242599
H 3.053201 -0.151579 0.832626
H 1.874132 -1.480864 0.897586
H 3.208205 -1.530831 -0.264737
S 1.521251 -0.079149 -1.048076
H -2.130345 1.228072 -1.117855
C 0.815477 1.469664 1.151191
H 1.080423 0.723099 1.899654
H 1.714945 2.037101 0.907540
H 0.086483 2.145022 1.600899
H -0.063244 1.623931 -0.791061
C -0.922641 -1.201984 1.041717
H -1.921395 -1.575252 1.267462
H -0.416440 -0.999458 1.990963
H -0.368500 -2.018541 0.561207