19

C -1.781358 0.456369 0.452595
C -0.876732 -0.013469 -0.461942
C 0.432137 0.646806 -0.727101
O -2.906596 -0.059182 0.792638
C 1.357067 -0.856653 1.471620
H 1.219701 0.033573 2.083290
H 0.424894 -1.417736 1.440567
H 2.142601 -1.469410 1.908870
S 1.877813 -0.426175 -0.196521
H -1.506426 1.405342 0.947070
C 0.630468 2.046913 -0.159417
H 0.644716 2.040007 0.930625
H 1.575867 2.461225 -0.506107
H -0.177997 2.706915 -0.478436
H 0.615808 0.683543 -1.806741
C -1.123142 -1.310021 -1.177521
H -2.180678 -1.568771 -1.137480
H -0.561834 -2.145890 -0.739241
H -0.819537 -1.256221 -2.228584