19

C 0.970522 -1.454678 -0.383340
O 1.917653 -2.121459 0.158777
C 0.636559 -0.136657 -0.209937
C -0.503172 0.446218 -0.954705
C 1.399353 0.755015 0.728642
C 2.423736 1.651121 0.023732
H 0.317834 -1.995227 -1.102512
H -0.818469 -0.200839 -1.775242
H -0.286460 1.433168 -1.372339
H 0.700965 1.391370 1.284024
H 1.916528 0.136785 1.465321
H 2.930841 2.320137 0.722363
H 3.180365 1.043095 -0.474761
H 1.941458 2.268139 -0.737154
C -2.441452 -0.925644 0.487206
H -2.732104 -1.492046 -0.396942
H -1.577591 -1.398988 0.951600
H -3.270286 -0.907391 1.191032
S -2.034848 0.772576 0.051551