19

C 1.245352 -1.370579 -0.224901
O 2.355402 -1.522765 -0.846384
C 0.771041 -0.279661 0.450207
C -0.557408 -0.331083 1.146137
C 1.605645 0.964483 0.610315
C 1.145558 2.176480 -0.204059
H 0.548922 -2.236546 -0.223974
H -0.720487 0.588273 1.712314
H -0.645030 -1.156035 1.858595
H 1.639905 1.261217 1.666238
H 2.630564 0.717977 0.326262
H 1.791366 3.041198 -0.035921
H 1.153412 1.947523 -1.271208
H 0.127611 2.465482 0.063724
C -1.954456 0.801144 -1.016816
H -2.101609 1.746911 -0.497779
H -0.979060 0.797520 -1.500881
H -2.732648 0.680227 -1.767228
S -2.068160 -0.589771 0.117227