19

C 1.217199 1.433479 -0.029129
O 2.243474 1.740017 0.668611
C 0.617806 0.212308 -0.188691
C -0.561702 0.070345 -1.082501
C 1.184742 -1.024085 0.459530
C 2.199333 -1.759030 -0.424472
H 0.725873 2.255752 -0.594172
H -0.598305 -0.918623 -1.544566
H -0.564925 0.809472 -1.885119
H 1.671531 -0.747866 1.398421
H 0.384342 -1.723954 0.715979
H 2.577331 -2.665946 0.053151
H 1.743274 -2.045595 -1.374528
H 3.048674 -1.111322 -0.646203
C -2.119568 -0.690820 1.149315
H -2.034641 -1.744772 0.888450
H -1.257200 -0.389640 1.742187
H -3.026283 -0.539592 1.730869
S -2.240270 0.340548 -0.321104