14

C -1.419323 -0.616328 0.000000
O -2.504471 -0.088817 0.000000
C -0.115308 0.106272 -0.000000
C -0.122566 1.435613 -0.000000
C 1.105552 -0.770304 -0.000000
C 2.427074 -0.021733 0.000000
H -1.341727 -1.718465 -0.000000
H 0.788940 2.017154 -0.000000
H -1.063328 1.970431 0.000000
H 1.051039 -1.432506 0.869684
H 1.051039 -1.432505 -0.869685
H 3.261081 -0.721128 0.000000
H 2.518073 0.613222 -0.881867
H 2.518072 0.613221 0.881868