19

C -2.220021 -0.244154 -0.037067
O -2.672552 -1.411048 -0.305459
C -0.971236 0.130061 0.386757
C 0.050472 -0.912178 0.657970
C -0.628685 1.584254 0.582511
C -0.078893 2.293390 -0.662919
H -2.926331 0.607624 -0.146712
H -0.418759 -1.893701 0.605417
H 0.514184 -0.806808 1.644030
H -1.520244 2.129721 0.908182
H 0.098469 1.685120 1.397349
H 0.217207 3.322908 -0.447068
H -0.843259 2.316994 -1.441761
H 0.782784 1.765529 -1.072225
C 2.647731 0.100686 0.315483
H 2.253956 1.115095 0.340262
H 2.853590 -0.232938 1.331383
H 3.575090 0.094465 -0.253402
S 1.499845 -1.032999 -0.492387