19

C 3.320579 -0.016012 -0.515824
C 1.960482 -0.172719 0.149887
C 0.927654 0.616324 -0.300121
C -0.436183 0.560473 0.290184
O 1.893528 -1.032009 1.094126
C -1.135698 1.912266 0.310984
H 3.322593 0.731570 -1.308567
H 4.063060 0.262683 0.235200
H 3.634247 -0.975086 -0.934117
H 1.092590 1.305896 -1.119788
H -0.376889 0.148815 1.299627
H -0.570399 2.607718 0.934354
H -2.149194 1.850253 0.708003
H -1.187446 2.324882 -0.698245
S -1.438857 -0.670426 -0.661816
C -2.980755 -0.731336 0.281889
H -3.542609 -1.599374 -0.056951
H -2.762601 -0.848087 1.343082
H -3.586338 0.159630 0.131456