19

C -1.773787 0.295894 1.294528
C -1.760805 -0.340239 -0.091297
C -0.678278 -0.171609 -0.926406
C 0.551728 0.649999 -0.720142
O -2.806585 -1.017602 -0.386016
C 0.355246 2.128606 -0.380827
H -2.392762 1.196743 1.286054
H -2.234671 -0.408621 1.987739
H -0.783538 0.555607 1.661973
H -0.727470 -0.705119 -1.871081
H 1.123415 0.609483 -1.648880
H -0.251360 2.596201 -1.156966
H 1.312044 2.651794 -0.327601
H -0.158093 2.263545 0.569453
S 1.770689 0.001581 0.544387
C 1.991661 -1.666769 -0.090735
H 2.644424 -2.204700 0.593073
H 1.026774 -2.167739 -0.146828
H 2.448317 -1.646967 -1.079734