14

C -2.297330 -0.270427 0.190285
C -0.877956 0.163455 -0.064601
C 0.115789 -0.931828 -0.154908
C 1.439537 -0.791365 -0.051023
O -0.587188 1.336696 -0.196230
C 2.218169 0.460970 0.177659
H -2.950021 0.593647 0.270490
H -2.630285 -0.913982 -0.626019
H -2.345033 -0.865500 1.103410
H -0.294953 -1.926410 -0.281055
H 2.030225 -1.698747 -0.131480
H 3.083167 0.251393 0.805612
H 2.600410 0.834666 -0.776161
H 1.614732 1.246532 0.620576