26

C -0.177773 1.557013 -0.015660
C -1.477640 1.356075 0.411025
C -1.936872 0.143422 1.113423
O 0.301212 2.533436 -0.635890
O 0.686063 0.512071 0.320795
C 2.028204 0.633745 -0.103732
C 2.783884 -0.620631 0.302072
C 4.255160 -0.470211 -0.069521
C 2.181336 -1.862222 -0.345412
H -2.198155 2.116912 0.145015
H -1.156892 -0.305844 1.726386
H -2.796414 0.343887 1.754333
H 2.072614 0.758359 -1.191064
H 2.491332 1.517044 0.344528
H 2.704480 -0.718077 1.389127
H 4.824316 -1.349341 0.233416
H 4.364857 -0.358219 -1.150963
H 4.700892 0.404036 0.406881
H 2.717626 -2.761260 -0.038916
H 1.131954 -1.976246 -0.076563
H 2.246535 -1.786656 -1.434187
S -2.482971 -1.298706 0.048308
C -3.821978 -0.485582 -0.839102
H -4.218960 -1.181826 -1.574174
H -4.618927 -0.195386 -0.155102
H -3.441850 0.398192 -1.349455