26

C -0.084204 -1.027471 0.207853
C -1.214661 -1.178678 -0.567483
C -2.563324 -1.051930 0.013773
O 0.004731 -0.760433 1.426363
O 1.101474 -1.251773 -0.517705
C 2.333628 -0.913999 0.086682
C 2.907820 0.375521 -0.488559
C 4.289574 0.630598 0.102642
C 1.970654 1.549728 -0.234505
H -1.102641 -1.385229 -1.622669
H -2.528138 -1.153285 1.098140
H -3.273687 -1.784330 -0.373574
H 2.203154 -0.813539 1.165223
H 3.024425 -1.739775 -0.104725
H 3.008168 0.237749 -1.569815
H 4.221328 0.760721 1.185525
H 4.967939 -0.201154 -0.094016
H 4.733089 1.535247 -0.314347
H 0.974186 1.343533 -0.627479
H 1.877683 1.735131 0.838175
H 2.346179 2.459422 -0.705342
S -3.457150 0.553335 -0.320710
C -2.282470 1.694802 0.426835
H -1.279112 1.416436 0.105245
H -2.512302 2.701298 0.084743
H -2.337614 1.660636 1.513582