26

C -0.235451 -0.719991 -0.027162
C -1.252910 -0.605821 -0.953326
C -2.640944 -0.953545 -0.604953
O -0.281476 -1.145500 1.149301
O 1.005991 -0.299471 -0.522693
C 2.119349 -0.474245 0.328948
C 3.352365 0.097671 -0.351045
C 4.584896 -0.200615 0.495964
C 3.205897 1.596295 -0.589151
H -1.031247 -0.189926 -1.926448
H -2.668824 -1.594856 0.275391
H -3.182452 -1.453708 -1.409545
H 1.955596 0.035068 1.284279
H 2.266801 -1.536314 0.547211
H 3.460938 -0.403428 -1.317706
H 4.494814 0.270183 1.477998
H 4.716555 -1.272864 0.646795
H 5.485966 0.189042 0.021724
H 2.328069 1.816294 -1.194843
H 3.099721 2.118383 0.365555
H 4.084269 1.998959 -1.095201
S -3.775434 0.483809 -0.224052
C -2.861745 1.215485 1.143645
H -2.937445 0.601267 2.039195
H -1.815126 1.308299 0.855412
H -3.275551 2.201031 1.344630