26

C -0.101867 -1.427328 -0.221692
C -1.481012 -1.499949 -0.197299
C -2.356324 -0.732442 0.707910
O 0.692190 -2.070167 -0.947781
O 0.442192 -0.530227 0.710210
C 1.853420 -0.492875 0.806424
C 2.503009 0.436285 -0.212303
C 4.018978 0.296311 -0.132071
C 2.075248 1.881554 0.010683
H -1.937167 -2.153975 -0.929106
H -3.200203 -1.315824 1.080502
H -1.810365 -0.345099 1.565986
H 2.074302 -0.130224 1.815097
H 2.261749 -1.498205 0.701277
H 2.165540 0.109913 -1.198836
H 4.373699 0.558854 0.868268
H 4.336569 -0.725732 -0.343753
H 4.512075 0.959918 -0.843177
H 2.493165 2.537722 -0.754200
H 0.990336 1.975984 -0.011654
H 2.427493 2.234214 0.984020
S -3.227440 0.740951 -0.045119
C -1.784711 1.710279 -0.508799
H -1.070656 1.057770 -1.012289
H -2.099505 2.501506 -1.185441
H -1.313499 2.150107 0.368653