26

C -0.068893 0.078219 -0.002981
C -1.013994 -0.913488 -0.160193
C -2.196424 -0.988943 0.717043
O 0.005183 0.969962 0.872938
O 0.924659 0.048148 -0.998423
C 2.136332 0.709380 -0.693691
C 3.006391 -0.068191 0.287384
C 4.276161 0.722833 0.579438
C 3.332645 -1.456873 -0.248794
H -0.921316 -1.594796 -0.994778
H -2.031925 -0.425812 1.635088
H -2.473824 -2.008944 0.988129
H 2.665716 0.810924 -1.645458
H 1.935049 1.706942 -0.300379
H 2.432928 -0.172591 1.212432
H 4.856082 0.863641 -0.336470
H 4.047092 1.708571 0.987156
H 4.908984 0.198127 1.295871
H 2.422725 -2.018102 -0.459658
H 3.907470 -1.380280 -1.175819
H 3.927935 -2.023228 0.468883
S -3.791379 -0.342230 -0.005928
C -3.287428 1.350332 -0.356075
H -2.330283 1.331242 -0.876056
H -4.041035 1.806551 -0.993931
H -3.191020 1.928935 0.560933