26

C -0.042014 1.755394 -0.030793
C 1.312404 1.729163 0.241181
C 2.028723 0.538860 0.749321
O -0.732007 2.697615 -0.483364
O -0.694120 0.554901 0.262848
C -2.082408 0.504925 0.007529
C -2.591422 -0.884174 0.355131
C -1.907953 -1.951604 -0.492203
C -4.104963 -0.931029 0.175113
H 1.877265 2.619197 0.000096
H 2.892553 0.803595 1.361400
H 1.379757 -0.112857 1.333051
H -2.605687 1.261021 0.599255
H -2.283903 0.720113 -1.047447
H -2.357180 -1.068598 1.408048
H -2.122847 -1.784259 -1.551072
H -0.826932 -1.929629 -0.359107
H -2.268724 -2.947120 -0.230228
H -4.370502 -0.735867 -0.866753
H -4.497684 -1.912896 0.440252
H -4.604842 -0.186120 0.795697
S 2.705434 -0.517387 -0.617097
C 3.524856 -1.803746 0.350619
H 2.804195 -2.332262 0.973210
H 3.983587 -2.510791 -0.337063
H 4.299671 -1.372182 0.982960