26

C -0.053914 -0.493658 0.284177
C -1.062362 0.136884 0.984291
C -2.468298 -0.290289 0.830351
O -0.133748 -1.461294 -0.505943
O 1.212644 0.048268 0.531085
C 2.300096 -0.559891 -0.135140
C 3.575820 0.181862 0.227712
C 3.520433 1.634649 -0.231126
C 4.772960 -0.536863 -0.385463
H -0.823309 0.989457 1.603472
H -3.058088 -0.146741 1.737216
H -2.533149 -1.338183 0.535799
H 2.379641 -1.612743 0.150278
H 2.151443 -0.527053 -1.219969
H 3.673619 0.160308 1.317336
H 3.422794 1.680094 -1.319111
H 2.670580 2.155732 0.207167
H 4.431720 2.166238 0.045944
H 4.838873 -1.569683 -0.040882
H 4.692271 -0.548898 -1.475188
H 5.703882 -0.032008 -0.126371
S -3.355316 0.663503 -0.488711
C -4.998345 -0.076642 -0.366511
H -5.414378 0.077271 0.628330
H -5.645691 0.402229 -1.097837
H -4.954664 -1.144175 -0.577693