26

C 0.028026 1.114386 -0.396749
C 1.128379 0.749184 -1.144975
C 1.816427 -0.552243 -1.045283
O -0.613405 2.191385 -0.427998
O -0.392308 0.131118 0.512877
C -1.741088 0.200161 0.930959
C -2.716741 -0.254975 -0.148288
C -4.142521 -0.162997 0.382796
C -2.392094 -1.667719 -0.618621
H 1.545326 1.508710 -1.793882
H 1.168428 -1.316653 -0.620871
H 2.181387 -0.912762 -2.008535
H -1.816791 -0.469045 1.792809
H -1.988042 1.212407 1.254138
H -2.607961 0.431866 -0.992302
H -4.272355 -0.826549 1.241739
H -4.384634 0.851782 0.702216
H -4.864369 -0.460024 -0.378617
H -2.491092 -2.375300 0.209230
H -3.072240 -1.982017 -1.411550
H -1.371134 -1.728602 -0.995632
S 3.380413 -0.580288 -0.022267
C 2.714961 -0.016400 1.552310
H 2.082190 -0.776748 2.006140
H 3.549792 0.204909 2.213517
H 2.128492 0.886217 1.385946