26

C -0.378130 1.559289 -0.044705
C -1.662643 1.381771 0.432682
C -2.147687 0.149328 1.080865
O 0.100236 2.548094 -0.648293
O 0.475392 0.482837 0.214337
C 1.760502 0.538696 -0.368284
C 2.509862 -0.737369 -0.022190
C 2.682994 -0.886515 1.485029
C 3.861165 -0.741012 -0.728801
H -2.365915 2.179597 0.233622
H -2.884556 0.341668 1.862035
H -1.335320 -0.427069 1.519334
H 2.315163 1.406677 0.004159
H 1.677923 0.646457 -1.453900
H 1.916824 -1.579382 -0.392566
H 3.263482 -0.048763 1.880710
H 1.720059 -0.901947 1.993570
H 3.215701 -1.807112 1.727000
H 3.746982 -0.660287 -1.810614
H 4.470233 0.100523 -0.389717
H 4.410349 -1.657641 -0.512466
S -3.073214 -1.050886 -0.019319
C -1.788958 -1.380300 -1.236884
H -2.236281 -1.928759 -2.062850
H -1.390322 -0.433041 -1.598984
H -0.980549 -1.967526 -0.804863