26

C 0.084050 -0.244806 -0.273986
C -0.871625 0.274631 0.575993
C -2.051282 -0.522384 0.956235
O 0.134514 -1.383649 -0.785228
O 1.101515 0.675202 -0.579464
C 2.292410 0.181854 -1.164576
C 3.391445 -0.030968 -0.126238
C 2.995721 -1.101372 0.885766
C 3.747570 1.275317 0.576210
H -0.778640 1.298033 0.909268
H -2.434608 -0.256870 1.942175
H -1.833425 -1.590385 0.951418
H 2.084538 -0.748386 -1.692010
H 2.616547 0.933115 -1.889211
H 4.270502 -0.378964 -0.679040
H 2.103200 -0.789431 1.432942
H 2.769881 -2.047293 0.393931
H 3.796203 -1.266103 1.608615
H 4.047823 2.041978 -0.140205
H 2.886646 1.650237 1.131821
H 4.566903 1.129071 1.281347
S -3.540124 -0.411348 -0.170938
C -3.852133 1.355977 -0.026483
H -4.129747 1.617522 0.994145
H -2.960326 1.911002 -0.314179
H -4.668680 1.616120 -0.695996