26

C 0.378187 1.559293 -0.044908
C 1.662711 1.381832 0.432465
C 2.147765 0.149485 1.080831
O -0.100150 2.547957 -0.648751
O -0.475397 0.482975 0.214500
C -1.760335 0.538498 -0.368535
C -2.509798 -0.737367 -0.021929
C -3.860867 -0.741445 -0.728985
C -2.683428 -0.885603 1.485322
H 2.366006 2.179585 0.233198
H 2.884689 0.341935 1.861920
H 1.335416 -0.426828 1.519444
H -2.315109 1.406693 0.003231
H -1.677420 0.645623 -1.454191
H -1.916631 -1.579597 -0.391603
H -4.410118 -1.657945 -0.512274
H -4.470051 0.100293 -0.390615
H -3.746327 -0.661379 -1.810810
H -1.720663 -0.900703 1.994193
H -3.264067 -0.047624 1.880301
H -3.216194 -1.806065 1.727676
S 3.073174 -1.050939 -0.019227
C 1.788722 -1.380661 -1.236501
H 1.390001 -0.433495 -1.598751
H 2.235918 -1.929298 -2.062419
H 0.980402 -1.967810 -0.804209