26

C -0.253357 0.933039 -0.125883
C -0.889002 -0.081648 -0.812188
C -2.309159 0.056872 -1.198392
O -0.727635 2.039704 0.227626
O 1.087455 0.782238 0.238491
C 1.774785 -0.408058 -0.075890
C 3.205770 -0.305253 0.426057
C 3.946637 0.843666 -0.248006
C 3.923427 -1.629988 0.190429
H -0.388244 -1.008101 -1.042723
H -2.525578 -0.347319 -2.188696
H -2.616334 1.101460 -1.181774
H 1.276205 -1.266602 0.387179
H 1.779208 -0.570551 -1.161450
H 3.163571 -0.114378 1.502521
H 4.966048 0.924786 0.131220
H 4.001931 0.672976 -1.326413
H 3.439765 1.792652 -0.080538
H 4.947336 -1.587659 0.562199
H 3.414345 -2.455457 0.689616
H 3.965766 -1.855473 -0.877934
S -3.529040 -0.861907 -0.135128
C -3.162420 -0.105615 1.457074
H -3.641361 -0.698443 2.233093
H -2.083388 -0.107685 1.606182
H -3.533278 0.916676 1.501430