21

C 1.295189 -0.243411 0.145602
C 2.541934 0.562178 0.157949
C 3.625037 0.137228 -0.474723
O 1.161425 -1.307455 -0.408312
O 0.327920 0.361317 0.838688
C -0.947850 -0.296367 0.894955
C -1.790669 -0.013333 -0.338472
C -2.031974 1.481967 -0.510319
C -3.106396 -0.774976 -0.216977
H 2.513474 1.496393 0.701258
H 4.539861 0.712780 -0.474729
H 3.614761 -0.804129 -1.009006
H -0.788610 -1.366051 1.023536
H -1.429701 0.107280 1.785209
H -1.244519 -0.389892 -1.206714
H -2.621989 1.674141 -1.406549
H -2.581952 1.877830 0.346889
H -1.094813 2.031095 -0.595840
H -3.730450 -0.602831 -1.093511
H -2.939952 -1.848557 -0.122813
H -3.662493 -0.438663 0.661177