26

C 0.075673 -0.000996 -0.005666
C 1.057662 -0.746704 -0.624392
C 2.256817 -1.190393 0.108079
O -0.010610 0.351701 1.190676
O -0.940751 0.396108 -0.895052
C -2.144227 0.903938 -0.354625
C -3.251546 -0.143888 -0.348174
C -4.560290 0.496081 0.101378
C -2.884511 -1.327794 0.538702
H 0.976059 -0.940019 -1.685017
H 2.587252 -2.193952 -0.164609
H 2.084799 -1.169781 1.183524
H -1.972675 1.269712 0.659099
H -2.443472 1.746947 -0.983007
H -3.370288 -0.501382 -1.375939
H -4.466312 0.876740 1.121436
H -4.840261 1.329783 -0.544463
H -5.374401 -0.229263 0.090446
H -1.935462 -1.769744 0.233220
H -2.784974 -1.004442 1.577224
H -3.654300 -2.099829 0.494707
S 3.808535 -0.190161 -0.181029
C 3.214138 1.424529 0.349056
H 3.110492 1.468899 1.431831
H 3.928805 2.176904 0.023279
H 2.246769 1.610882 -0.116398