26

C -0.072990 1.259361 0.120751
C 0.998807 1.208243 -0.749262
C 1.635280 -0.036315 -1.219255
O -0.670341 2.269701 0.556543
O -0.506886 -0.004838 0.548792
C -1.776988 -0.107127 1.163905
C -2.838453 -0.598695 0.183024
C -2.481288 -1.976231 -0.366092
C -3.047694 0.400698 -0.950099
H 1.424012 2.157217 -1.048772
H 0.965877 -0.889550 -1.126605
H 1.968979 0.023103 -2.256562
H -1.671510 -0.829014 1.978042
H -2.062064 0.856525 1.583829
H -3.769190 -0.681632 0.754147
H -1.547115 -1.924570 -0.928320
H -2.351726 -2.702042 0.438713
H -3.259703 -2.345371 -1.035183
H -2.124521 0.518636 -1.522106
H -3.826297 0.056159 -1.632314
H -3.330037 1.381492 -0.567127
S 3.216348 -0.534959 -0.351083
C 2.599387 -0.668875 1.334781
H 3.452921 -0.767472 2.001797
H 2.042526 0.234016 1.581746
H 1.947730 -1.533407 1.446843