26

C -0.375813 1.635447 0.038375
C -1.677258 1.436915 -0.379282
C -2.150981 0.221177 -1.065535
O 0.094043 2.585630 0.707059
O 0.510190 0.637065 -0.385085
C 1.785324 0.622491 0.220850
C 2.642396 -0.436084 -0.453155
C 2.005108 -1.817195 -0.356633
C 4.034309 -0.432285 0.169963
H -2.401882 2.179997 -0.072721
H -2.941980 0.418426 -1.790511
H -1.343903 -0.297640 -1.578413
H 2.259492 1.602129 0.139025
H 1.689526 0.391357 1.290448
H 2.730047 -0.164458 -1.509710
H 1.872959 -2.098100 0.692060
H 1.027250 -1.833543 -0.836197
H 2.635864 -2.571122 -0.829705
H 3.977919 -0.697900 1.228424
H 4.682255 -1.158419 -0.321362
H 4.504155 0.549210 0.093357
S -2.961470 -1.064491 0.030382
C -1.613141 -1.364749 1.184822
H -1.237771 -0.408724 1.549957
H -2.003236 -1.945182 2.018002
H -0.800702 -1.910025 0.709006