20

C -2.056974 -1.570763 0.415619
C -0.841663 -1.015681 0.724878
C -0.051198 -0.209273 -0.246755
C 1.380423 -0.660703 -0.318995
C 2.475187 0.002013 0.035996
C 3.861899 -0.559898 -0.035914
O -2.706225 -1.518983 -0.679863
H -2.513459 -2.144237 1.248225
H -0.435631 -1.155317 1.720177
H -0.507538 -0.338215 -1.231328
H 1.488026 -1.682919 -0.676649
H 2.389650 1.018881 0.407988
H 4.497578 0.046167 -0.684469
H 4.333910 -0.567811 0.948589
H 3.853436 -1.579549 -0.420107
C -1.899332 1.844675 -0.049753
H -2.400972 1.128298 0.598723
H -2.125273 2.858473 0.273176
H -2.239330 1.707761 -1.074491
S -0.118790 1.617382 0.073663