20

C 2.317603 1.105414 -0.225537
C 1.114427 0.612300 0.206406
C 0.182437 -0.091684 -0.703507
C -1.261860 0.327860 -0.668525
C -1.804989 1.198022 0.175232
C -3.256335 1.566374 0.192875
O 3.224056 1.706836 0.435643
H 2.502858 0.952559 -1.312008
H 0.847312 0.708640 1.254099
H 0.546935 -0.005478 -1.731047
H -1.904252 -0.164177 -1.395191
H -1.166721 1.691838 0.901045
H -3.809586 1.031125 -0.578321
H -3.706999 1.336239 1.160531
H -3.390751 2.637921 0.031895
C -0.231284 -2.068517 1.250162
H -1.165706 -1.546502 1.453560
H -0.346619 -3.120586 1.500358
H 0.565364 -1.640450 1.855537
S 0.179732 -1.964652 -0.499265