15

C -2.515296 0.144962 0.054982
C -1.093624 -0.135461 -0.092545
C -0.206325 0.863086 0.023087
C 1.244259 0.760170 -0.071492
C 1.936734 -0.369079 0.091531
C 3.420029 -0.471501 -0.002213
O -3.392329 -0.689582 -0.018618
H -2.767419 1.203677 0.244090
H -0.805564 -1.158298 -0.303607
H -0.601262 1.860860 0.194915
H 1.781086 1.684128 -0.256807
H 1.402919 -1.285673 0.325051
H 3.702364 -1.185483 -0.778594
H 3.873357 0.491514 -0.229620
H 3.838493 -0.847124 0.933418