15

C 2.719912 0.269816 -0.000001
C 1.348841 0.788966 0.000001
C 0.288084 -0.031674 -0.000001
C -1.089464 0.405291 0.000000
C -2.112793 -0.454338 -0.000001
C -3.550927 -0.068756 0.000000
O 3.015528 -0.906945 0.000002
H 3.516008 1.032082 -0.000007
H 1.225873 1.864956 0.000003
H 0.469015 -1.102946 -0.000003
H -1.278131 1.474431 0.000001
H -1.891255 -1.518083 -0.000001
H -4.056366 -0.481619 0.875224
H -3.674913 1.012530 0.000001
H -4.056369 -0.481619 -0.875222