23

C 0.839409 -0.258718 -0.009594
C -0.251323 0.422232 0.486583
C -0.338194 1.927759 0.452967
C -1.369650 -0.368231 1.040907
O 1.041113 -1.498331 -0.055170
O 1.827838 0.589261 -0.538401
C 3.087771 0.001977 -0.806398
C 3.909031 -0.173897 0.457937
H -1.182290 2.267888 1.058321
H 0.560387 2.405472 0.852673
H -0.486022 2.348677 -0.549143
H -1.898693 0.172432 1.828797
H -1.031283 -1.323306 1.441684
H 2.954949 -0.956243 -1.307668
H 3.588941 0.685639 -1.492682
H 4.890708 -0.587350 0.222951
H 4.050824 0.784888 0.957737
H 3.400546 -0.853550 1.140759
C -3.245228 0.720083 -0.723072
H -2.430371 1.217833 -1.244198
H -3.571054 1.339275 0.112514
H -4.078151 0.581208 -1.408747
S -2.719437 -0.902346 -0.141276