18

C 0.344125 -0.560003 0.000006
C 1.612188 0.235987 -0.000002
C 1.518264 1.731599 0.000012
C 2.755364 -0.439683 -0.000021
O 0.280986 -1.766216 0.000012
O -0.733536 0.223748 0.000003
C -2.008782 -0.439326 0.000006
C -3.075968 0.626124 -0.000015
H 2.513299 2.170674 0.000009
H 0.975648 2.086921 -0.876080
H 0.975661 2.086906 0.876118
H 3.707292 0.074105 -0.000028
H 2.757521 -1.520823 -0.000030
H -2.067647 -1.076047 -0.882188
H -2.067656 -1.076023 0.882216
H -4.058552 0.156840 -0.000013
H -2.993161 1.254513 0.885516
H -2.993152 1.254486 -0.885564