23

C -1.070293 0.963445 -0.007700
C 0.248925 1.208775 0.311305
C 0.825633 2.584753 0.138577
C 1.171099 0.134791 0.743920
O -1.952304 1.772956 -0.390624
O -1.447857 -0.382943 0.126803
C -2.815169 -0.677659 -0.080365
C -2.994795 -2.170067 0.096206
H 0.049009 3.290087 -0.153725
H 1.286044 2.960063 1.061144
H 1.609879 2.622690 -0.628672
H 0.652433 -0.715918 1.180076
H 1.910706 0.501565 1.462017
H -3.434117 -0.126741 0.632565
H -3.122885 -0.366489 -1.080619
H -2.386242 -2.717603 -0.623719
H -4.038324 -2.445563 -0.055812
H -2.699964 -2.478201 1.099421
C 3.299955 -1.622503 0.238354
H 3.895169 -1.048377 0.947213
H 3.965849 -2.100453 -0.476745
H 2.745059 -2.391578 0.773963
S 2.173534 -0.539550 -0.666770