23

C -0.832912 0.594089 0.340951
C 0.338636 0.999909 -0.262949
C 0.910799 2.350856 0.054522
C 1.145104 0.109492 -1.119882
O -1.591956 1.252839 1.096386
O -1.194830 -0.739884 0.067400
C -2.560441 -1.063930 0.250214
C -3.425940 -0.508587 -0.866433
H 0.169981 2.975523 0.551373
H 1.790267 2.297623 0.709955
H 1.239085 2.873157 -0.851903
H 1.572194 0.635931 -1.978487
H 0.578543 -0.743426 -1.482807
H -2.602675 -2.153723 0.258404
H -2.907277 -0.698056 1.216360
H -4.467819 -0.798778 -0.725339
H -3.091587 -0.885469 -1.833536
H -3.368016 0.579450 -0.875700
C 1.930672 -1.453305 1.067877
H 1.405701 -2.348232 0.738759
H 1.225212 -0.781665 1.556177
H 2.716580 -1.730452 1.766833
S 2.687412 -0.593542 -0.321636