18

C 0.283461 0.887410 0.120636
C 1.069977 -0.387930 0.187563
C 1.931378 -0.671091 -1.006414
C 1.086082 -1.098055 1.308402
O 0.811139 1.920793 -0.207545
O -1.005999 0.907854 0.472939
C -1.837308 -0.270216 0.429891
C -1.993706 -0.781085 -0.984103
H 1.328014 -0.784249 -1.908691
H 2.614707 0.160471 -1.178645
H 2.507333 -1.580673 -0.853567
H 1.732171 -1.960781 1.406466
H 0.483569 -0.829597 2.166131
H -1.443017 -1.036020 1.091020
H -2.787772 0.073396 0.829173
H -2.359738 0.009412 -1.637822
H -1.046748 -1.152824 -1.376072
H -2.708941 -1.602516 -0.996993