18

C -0.187096 0.970841 -0.004797
C 0.757037 -0.160441 -0.170066
C 2.053508 0.020038 0.069987
C 3.094108 -1.035055 -0.059568
O 0.160070 2.081063 0.324520
O -1.491626 0.771046 -0.237133
C -2.036563 -0.511111 -0.587120
C -2.195784 -1.398682 0.627417
H 0.394667 -1.128714 -0.480836
H 2.380335 1.005718 0.384472
H 3.855410 -0.723826 -0.777140
H 3.605471 -1.176141 0.894355
H 2.671356 -1.984862 -0.379967
H -3.005779 -0.276119 -1.019732
H -1.432787 -0.974069 -1.365726
H -2.820402 -0.907010 1.371778
H -2.673645 -2.333425 0.336603
H -1.233448 -1.631964 1.081982