23

C -0.880384 -0.653758 0.261636
C 0.296865 -0.898316 -0.412076
C 1.611412 -0.695674 0.222122
C 2.637962 -1.769344 -0.122601
O -1.052322 -0.242944 1.431463
O -2.022143 -0.957159 -0.503253
C -3.236697 -0.370520 -0.070919
C -3.301649 1.105606 -0.418991
H 1.488393 -0.629422 1.303064
H 3.616203 -1.555308 0.311448
H 2.297307 -2.735982 0.249234
H 2.754440 -1.847160 -1.205245
H -4.025400 -0.919044 -0.586700
H -3.362873 -0.513436 1.002041
H -4.259013 1.530397 -0.114842
H -2.505190 1.644685 0.093934
H -3.186635 1.250534 -1.493676
C 1.147730 2.090259 0.165720
H 1.048727 2.204902 1.243517
H 0.206922 1.726964 -0.247401
H 1.398602 3.051217 -0.278161
S 2.450998 0.922230 -0.250312
H 0.256831 -1.212723 -1.447251