23

C 0.823678 -0.205695 0.359394
C -0.256282 -0.757949 -0.299698
C -1.611335 -0.750394 0.275389
C -2.392504 -2.037274 0.031195
O 0.872757 0.336714 1.486566
O 2.015639 -0.302344 -0.372281
C 3.179860 0.212379 0.245840
C 4.339917 -0.008645 -0.700333
H -1.556049 -0.543354 1.344198
H -1.889406 -2.871249 0.521063
H -3.413900 -1.975565 0.410921
H -2.438369 -2.253434 -1.037923
H 3.054585 1.275977 0.461508
H 3.356012 -0.291616 1.198734
H 4.168914 0.505887 -1.645956
H 5.261670 0.374080 -0.262492
H 4.471987 -1.070871 -0.906121
C -1.707722 2.050834 -0.099584
H -1.680571 2.302774 0.958854
H -0.697086 1.841381 -0.448944
H -2.123280 2.886756 -0.658081
S -2.735153 0.605616 -0.401907
H -0.112902 -1.165117 -1.292740