18

C 0.005940 0.380069 0.000008
C -1.229080 -0.430568 0.000041
C -2.424312 0.150313 0.000022
C -3.724213 -0.574642 -0.000042
O 0.057028 1.588103 -0.000115
O 1.094624 -0.394736 0.000141
C 2.361687 0.282223 0.000165
C 3.441119 -0.771291 -0.000174
H -1.111714 -1.506299 0.000054
H -2.458861 1.235505 0.000001
H -4.312583 -0.292644 0.874885
H -4.312249 -0.292883 -0.875269
H -3.584103 -1.653592 0.000158
H 2.415122 0.919979 -0.881820
H 2.415290 0.919575 0.882433
H 4.418762 -0.291727 -0.000132
H 3.365207 -1.400954 0.885107
H 3.365070 -1.400523 -0.885750