23

C 0.811451 -0.259370 0.777279
C -0.005168 0.593260 0.062779
C -1.437088 0.732571 0.402079
C -1.951687 2.163551 0.289279
O 0.501801 -0.988880 1.750099
O 2.163811 -0.361861 0.436669
C 2.681502 0.406449 -0.629861
C 4.159492 0.106098 -0.750631
H -1.614128 0.350221 1.406739
H -1.423147 2.800351 0.999019
H -1.769147 2.554071 -0.713771
H -3.021887 2.230392 0.492039
H 2.520812 1.471629 -0.437381
H 2.162022 0.156729 -1.560191
H 4.679902 0.366437 0.170839
H 4.320811 -0.952902 -0.950921
H 4.595332 0.681667 -1.566871
C -1.864440 -1.906899 -0.496511
H -0.790789 -1.845289 -0.667461
H -2.048660 -2.301219 0.500619
H -2.317910 -2.563589 -1.235921
S -2.583919 -0.269598 -0.692191
H 0.360212 1.157050 -0.782291