23

C 0.948669 1.113304 -0.246348
C -0.386129 1.191057 0.102179
C -1.129353 0.141279 0.828508
C -2.288193 0.705768 1.642986
O 1.645886 1.949058 -0.866512
O 1.569067 -0.065632 0.175193
C 2.942189 -0.205601 -0.140604
C 3.399406 -1.548507 0.385423
H -0.465652 -0.426800 1.480301
H -2.845118 -0.078260 2.154987
H -1.908920 1.410941 2.384503
H -2.979407 1.250689 0.997088
H 3.086702 -0.140947 -1.221023
H 3.518175 0.605234 0.310774
H 2.827150 -2.355432 -0.072463
H 4.454288 -1.702913 0.159337
H 3.267425 -1.604155 1.466018
C -2.826648 -0.319102 -1.388640
H -3.746016 0.016625 -0.912705
H -3.079089 -0.962184 -2.228595
H -2.265948 0.541554 -1.754029
S -1.788647 -1.260132 -0.256793
H -0.924522 2.071166 -0.225972