23

C -0.224058 -0.110744 0.051919
C 0.805215 -0.968736 0.376603
C 1.984906 -1.115632 -0.495016
O -0.376776 0.591037 -0.973374
O -1.214167 -0.044336 1.050081
C -2.459643 0.503927 0.665369
C -3.311687 -0.483806 -0.114483
C -4.651922 0.125453 -0.505271
H 2.356954 -2.139773 -0.552916
H 1.765722 -0.776276 -1.506727
H -2.964840 0.778324 1.593929
H -2.308811 1.409387 0.075789
H -2.759644 -0.788986 -1.005386
H -3.465367 -1.377617 0.494470
H -5.210423 0.439037 0.378599
H -5.268733 -0.584287 -1.055255
H -4.509282 1.004323 -1.136258
S 3.515217 -0.184356 0.033741
C 2.846159 1.487058 0.036558
H 3.560284 2.140573 0.532466
H 2.673987 1.841841 -0.978019
H 1.904972 1.488322 0.585048
H 0.775433 -1.483890 1.326675