23

C 0.466026 1.082777 -0.150424
C -0.660719 0.719393 -0.861211
C -1.288266 -0.614541 -0.791742
O 1.077863 2.175854 -0.158560
O 0.949451 0.067725 0.687370
C 2.312652 0.161132 1.062466
C 3.243356 -0.201320 -0.084628
C 2.986482 -1.602577 -0.623845
H -1.786293 -0.881103 -1.725142
H -0.566453 -1.395258 -0.556164
H 2.436055 -0.549574 1.882300
H 2.534090 1.162302 1.431518
H 4.273444 -0.115064 0.269882
H 3.114944 0.536991 -0.878538
H 3.666701 -1.846087 -1.439792
H 1.965438 -1.687044 -0.997092
H 3.118911 -2.351194 0.159906
S -2.599423 -0.868082 0.517826
C -3.765634 0.393001 -0.022679
H -4.158761 0.157603 -1.011220
H -4.587367 0.427375 0.688843
H -3.273242 1.363977 -0.049798
H -1.128596 1.490555 -1.458030