23

C -0.359024 0.056609 0.003383
C 0.589906 -0.693318 -0.661061
C 1.772169 -1.224997 0.039095
O -0.428603 0.341004 1.218897
O -1.357446 0.547604 -0.857470
C -2.529293 1.096838 -0.282573
C -3.669908 0.090999 -0.291327
C -3.387409 -1.123838 0.582909
H 2.058826 -2.226677 -0.285268
H 1.606408 -1.250300 1.115345
H -2.794711 1.967173 -0.886155
H -2.320354 1.428356 0.734428
H -3.849363 -0.224916 -1.322047
H -4.577898 0.596934 0.047218
H -2.469108 -1.619938 0.265233
H -4.200823 -1.847652 0.529964
H -3.259782 -0.828364 1.624837
S 3.363976 -0.277680 -0.210860
C 2.842818 1.329417 0.411078
H 3.583256 2.069045 0.115126
H 1.878189 1.578240 -0.030232
H 2.753838 1.320636 1.496082
H 0.500744 -0.818776 -1.731211