23

C -1.034973 1.572181 -0.046648
C 0.294852 1.632613 -0.391153
C 1.414693 0.985466 0.333872
O -1.998456 2.174152 -0.575717
O -1.374444 0.776286 1.077593
C -1.325580 -0.626372 0.872610
C -2.237111 -1.111573 -0.242252
C -2.143753 -2.624350 -0.396613
H 2.251962 1.666528 0.505309
H 1.096829 0.594163 1.299627
H -1.629398 -1.076796 1.820542
H -0.301814 -0.950936 0.661349
H -1.947995 -0.620781 -1.174344
H -3.263962 -0.809064 -0.026482
H -1.122021 -2.925634 -0.635521
H -2.793610 -2.985176 -1.192844
H -2.431821 -3.130663 0.526402
S 2.135421 -0.418648 -0.622822
C 3.527406 -0.844125 0.445167
H 4.073361 -1.662517 -0.018632
H 4.195552 0.008454 0.558435
H 3.176356 -1.161993 1.425721
H 0.539822 2.246248 -1.249316