23

C 0.317767 0.179245 0.103605
C -0.540318 -0.850430 -0.218834
C -1.759274 -1.105119 0.570874
O 0.285054 0.959448 1.082436
O 1.351750 0.345851 -0.835939
C 2.513449 1.011172 -0.373362
C 3.371290 0.115773 0.507400
C 3.851091 -1.133729 -0.219880
H -1.981630 -2.165602 0.699552
H -1.682417 -0.651171 1.558330
H 3.067327 1.290543 -1.272323
H 2.237734 1.919272 0.162272
H 4.225957 0.698210 0.860473
H 2.788026 -0.160593 1.388326
H 3.003135 -1.723244 -0.568657
H 4.458238 -1.764685 0.429059
H 4.454107 -0.867843 -1.090367
S -3.352033 -0.467638 -0.164210
C -2.938165 1.280893 -0.278896
H -2.914893 1.744063 0.705962
H -1.961278 1.381736 -0.750386
H -3.692241 1.770394 -0.891047
H -0.359006 -1.418094 -1.121252