23

C -0.947143 1.317946 0.073572
C 0.383686 1.509312 -0.216832
C 1.524330 0.830888 0.444765
O -1.935842 1.933198 -0.389904
O -1.255478 0.345335 1.057761
C -1.130639 -1.006609 0.638973
C -2.041336 -1.361058 -0.526079
C -3.515340 -1.152194 -0.209517
H 2.306898 1.529067 0.752386
H 1.204525 0.275029 1.325410
H -1.395520 -1.608526 1.511764
H -0.093371 -1.228965 0.374548
H -1.850530 -2.404714 -0.789225
H -1.754789 -0.759685 -1.392782
H -3.815218 -1.750785 0.653214
H -4.147388 -1.436486 -1.050974
H -3.697582 -0.103491 0.019652
S 2.369879 -0.359846 -0.683536
C 3.749612 -0.860542 0.367567
H 4.362528 -1.565593 -0.189408
H 4.357458 0.002225 0.636474
H 3.386514 -1.344055 1.273216
H 0.609937 2.258798 -0.965241