18

C -0.908008 -0.263968 0.108678
C -2.044021 0.674965 0.287464
C -3.184052 0.484614 -0.359113
O -0.921081 -1.242771 -0.597781
O 0.142149 0.110992 0.841345
C 1.330272 -0.695549 0.747979
C 2.154874 -0.326202 -0.469950
C 2.609635 1.127488 -0.454427
H -1.888105 1.506218 0.960895
H -4.019445 1.159856 -0.239275
H -3.302141 -0.359450 -1.026422
H 1.875363 -0.483917 1.665925
H 1.041687 -1.744485 0.731355
H 3.020125 -0.991787 -0.488064
H 1.573811 -0.536726 -1.368834
H 1.755089 1.803826 -0.448651
H 3.212965 1.356397 -1.331722
H 3.209909 1.336206 0.432498