23

C 0.987887 1.418241 -0.109080
C -0.353657 1.557836 0.171448
C -1.464401 0.806381 -0.460409
O 1.931800 2.145299 0.278951
O 1.375738 0.383668 -0.989221
C 1.058122 -0.960972 -0.659646
C 2.319008 -1.732663 -0.309084
C 2.976344 -1.199234 0.956763
H -2.253605 1.464579 -0.832758
H -1.120453 0.196673 -1.295227
H 0.560710 -1.417630 -1.520452
H 0.359276 -0.985669 0.179237
H 3.013603 -1.671993 -1.150336
H 2.055298 -2.786559 -0.189081
H 3.192222 -0.135959 0.847469
H 3.905652 -1.723328 1.179287
H 2.309067 -1.316979 1.813401
S -2.316867 -0.319596 0.728270
C -3.676769 -0.896211 -0.309683
H -4.283196 -0.056114 -0.645433
H -3.297394 -1.437637 -1.174912
H -4.296245 -1.565087 0.283468
H -0.614575 2.357240 0.853316