23

C 0.599963 1.538777 0.124672
C -0.697565 1.575364 0.597748
C -1.520195 0.371257 0.847810
O 1.372152 2.495303 -0.115924
O 1.080474 0.245033 -0.094576
C 2.443334 0.126159 -0.454970
C 2.770012 -1.349337 -0.577820
C 2.599800 -2.103867 0.734755
H -2.240988 0.521159 1.653428
H -0.909912 -0.498420 1.089194
H 2.631902 0.644543 -1.397514
H 3.075414 0.592643 0.306624
H 2.134047 -1.790219 -1.349089
H 3.800644 -1.437388 -0.928554
H 1.566863 -2.053920 1.077861
H 2.871753 -3.153655 0.627193
H 3.232326 -1.670433 1.511929
S -2.533044 -0.114320 -0.627844
C -3.414322 -1.541101 0.043052
H -4.020185 -1.249459 0.899950
H -2.712897 -2.317678 0.345029
H -4.066698 -1.936443 -0.732450
H -1.140746 2.552182 0.734431