23

C 0.403403 -0.941866 0.218284
C -0.706690 -1.185870 -0.563593
C -2.066486 -1.152496 0.004484
O 0.461897 -0.656880 1.434532
O 1.608349 -1.083477 -0.495246
C 2.807092 -0.650694 0.121730
C 3.245777 0.699692 -0.423515
C 2.234710 1.800879 -0.133234
H -2.717774 -1.938225 -0.382233
H -2.035516 -1.241131 1.090127
H 2.665325 -0.599202 1.200828
H 3.565846 -1.405637 -0.095077
H 4.215734 0.949417 0.014289
H 3.398475 0.610954 -1.502002
H 1.262877 1.544967 -0.558148
H 2.550747 2.753519 -0.558364
H 2.101013 1.932703 0.941312
S -3.071778 0.380700 -0.350655
C -2.001296 1.606102 0.419687
H -0.974543 1.411333 0.111585
H -2.306089 2.593660 0.081002
H -2.068227 1.559130 1.505407
H -0.570441 -1.394319 -1.615592