23

C 0.184943 -0.744058 0.058877
C -0.782679 -0.621263 -0.918618
C -2.191724 -0.943677 -0.636767
O 0.069578 -1.149620 1.237648
O 1.459775 -0.364789 -0.379550
C 2.515359 -0.500990 0.552244
C 3.789930 -0.004908 -0.102373
C 3.737226 1.476979 -0.451845
H -2.699012 -1.450137 -1.459560
H -2.273582 -1.569176 0.251434
H 2.301015 0.080703 1.453606
H 2.619074 -1.545548 0.856096
H 3.980408 -0.596448 -1.000949
H 4.617351 -0.196665 0.584327
H 4.672329 1.812795 -0.899505
H 2.931603 1.679650 -1.156460
H 3.558401 2.076223 0.443002
S -3.325323 0.514816 -0.339256
C -2.474773 1.262547 1.060137
H -2.628426 0.684419 1.969702
H -2.864160 2.268176 1.201635
H -1.409686 1.309782 0.834817
H -0.504668 -0.223341 -1.884777