23

C -0.837496 -1.387925 -0.076233
C 0.506780 -1.679795 -0.193907
C 1.590529 -0.930325 0.479319
O -1.807527 -1.965231 -0.618774
O -1.109785 -0.321811 0.793609
C -2.443868 0.154016 0.821232
C -2.745094 1.092009 -0.337484
C -1.868151 2.337469 -0.328092
H 2.429534 -1.570746 0.758237
H 1.239130 -0.416868 1.372739
H -2.541394 0.691000 1.767613
H -3.139841 -0.683830 0.821155
H -2.611259 0.539207 -1.269072
H -3.799272 1.375386 -0.281348
H -2.094160 2.990605 -1.170903
H -0.813947 2.065918 -0.384470
H -2.017405 2.909627 0.589818
S 2.323306 0.376917 -0.610897
C 3.634854 0.994298 0.466712
H 3.216713 1.404251 1.384897
H 4.333801 0.196137 0.713503
H 4.169465 1.781141 -0.060810
H 0.768924 -2.494649 -0.854970