18

C 0.961983 -0.615594 0.084011
C 1.450336 0.788797 0.188927
C 2.599476 1.124848 -0.380141
O 1.619971 -1.498690 -0.410062
O -0.246117 -0.924630 0.565897
C -1.160555 0.059159 1.079769
C -1.829655 0.847889 -0.029001
C -2.602221 -0.041899 -0.994507
H 0.867620 1.522432 0.723651
H 2.978367 2.135351 -0.319291
H 3.182502 0.391746 -0.921572
H -1.898267 -0.530367 1.621042
H -0.654559 0.700068 1.799539
H -1.081675 1.430343 -0.571279
H -2.501836 1.565184 0.445703
H -3.091789 0.553771 -1.763241
H -1.938551 -0.750585 -1.489177
H -3.368825 -0.610589 -0.466402