23

C 0.154503 1.490006 -0.037317
C -1.089673 1.371181 -0.627310
C -1.637756 0.115206 -1.171927
O 0.682396 2.507622 0.469687
O 0.896327 0.306200 -0.037473
C 2.189888 0.363946 0.530698
C 2.795437 -1.024374 0.458473
C 2.959924 -1.524848 -0.971002
H -2.255097 0.269682 -2.058289
H -0.851712 -0.592792 -1.428239
H 2.812058 1.078688 -0.016932
H 2.132931 0.707385 1.565905
H 3.766094 -0.994878 0.958393
H 2.166692 -1.714169 1.026772
H 1.993532 -1.590956 -1.469883
H 3.423340 -2.510889 -0.995249
H 3.588767 -0.843239 -1.547100
S -2.814988 -0.824394 -0.058945
C -1.725033 -1.108157 1.345370
H -1.250792 -0.166761 1.621090
H -2.326166 -1.472602 2.175396
H -0.956242 -1.840022 1.103599
H -1.717115 2.252524 -0.611964