23

C -0.385781 -1.096610 0.065437
C 0.685745 -1.049878 -0.799334
C 2.072774 -1.081433 -0.302025
O -0.394333 -1.199779 1.313979
O -1.626309 -1.059584 -0.597664
C -2.719802 -0.585356 0.167690
C -2.612695 0.902404 0.468589
C -2.477743 1.747144 -0.791770
H 2.750939 -1.666298 -0.925628
H 2.112914 -1.478525 0.711589
H -3.603595 -0.779389 -0.443797
H -2.808435 -1.152718 1.094641
H -3.500354 1.200956 1.031952
H -1.750945 1.060599 1.119894
H -1.575699 1.472064 -1.338711
H -2.419079 2.809180 -0.553493
H -3.331551 1.597424 -1.455796
S 2.939243 0.571382 -0.242989
C 1.787684 1.466789 0.811783
H 1.841056 1.112256 1.839534
H 2.045888 2.522841 0.778626
H 0.776456 1.321918 0.430822
H 0.498558 -0.905880 -1.854535