17

C 2.289949 -0.359574 -0.058781
C 0.956989 0.238206 -0.017555
C -0.100594 -0.478274 -0.402997
C -1.530482 -0.041565 -0.406826
C -2.352749 -1.004162 0.458880
O 3.306627 0.209048 0.272222
C -1.731375 1.401999 0.030064
H 2.326229 -1.402002 -0.422480
H 0.881571 1.260677 0.331574
H 0.074726 -1.499360 -0.737199
H -1.881877 -0.151853 -1.438741
H -3.410907 -0.751846 0.398378
H -2.226264 -2.037124 0.135264
H -2.041898 -0.931186 1.502257
H -2.786740 1.665976 -0.027245
H -1.406055 1.540235 1.063022
H -1.172241 2.094319 -0.599316