22

C 0.161010 1.283707 -0.273744
C -0.150573 -0.032645 -0.667526
C -0.915569 -0.994107 0.179832
O 0.517594 2.187577 -1.068094
H -0.231705 -0.185694 -1.740936
H -0.583866 -2.024380 0.018893
H -0.791829 -0.786442 1.242757
C -3.204041 0.593501 0.254553
H -4.244828 0.718413 -0.035142
H -2.589880 1.302374 -0.299482
H -3.106570 0.777689 1.323159
S -2.719509 -1.090781 -0.156165
C 0.167708 1.608771 1.215583
H 0.688439 0.838301 1.787957
H 0.662860 2.565463 1.365592
H -0.848559 1.675430 1.608321
H 1.261141 -0.696877 -0.342495
S 2.563542 -1.366549 0.076313
C 3.469339 0.211514 0.069202
H 3.762249 0.493248 -0.939858
H 2.845804 1.000205 0.486630
H 4.364217 0.114480 0.679581