22

C 0.192136 1.583794 -0.330020
C 0.036459 0.197623 -0.508830
C 0.566970 -0.836216 0.425294
O -0.071000 2.434107 -1.214840
H -0.123245 -0.124806 -1.534874
H 0.670620 -0.452860 1.440419
H -0.095860 -1.703684 0.483703
C 3.231965 -0.131533 -0.015906
H 2.785943 0.662698 -0.613627
H 4.191877 -0.407151 -0.446417
H 3.385296 0.216455 1.004170
S 2.176333 -1.589213 -0.052071
C 0.552747 2.098462 1.057612
H -0.201017 1.785757 1.785185
H 1.512326 1.712671 1.402341
H 0.592551 3.184633 1.034662
H -1.475746 0.227360 0.022057
S -2.909721 -0.054931 0.431581
C -2.934976 -1.641212 -0.458291
H -3.889937 -1.771793 -0.961500
H -2.144770 -1.644438 -1.209065
H -2.777634 -2.476898 0.220367