22

C -0.227127 1.536592 0.005008
C -0.060425 0.212857 0.451832
C -0.575726 -0.929890 -0.356194
O -0.562512 1.862542 -1.158167
H 0.054275 0.053942 1.518769
H -0.629620 -0.642027 -1.405853
H 0.066179 -1.810851 -0.283160
C -3.194886 -0.049376 -0.052057
H -3.181202 0.286198 -1.086865
H -2.796201 0.736975 0.586375
H -4.216092 -0.276629 0.245504
S -2.225372 -1.554677 0.140547
C 0.161855 2.650317 0.960350
H 0.435680 2.284801 1.948274
H 1.005722 3.200086 0.537956
H -0.668590 3.351434 1.054216
H 1.427712 0.186910 -0.051338
S 2.851258 -0.162950 -0.511497
C 2.925799 -1.603518 0.597128
H 2.779260 -2.531077 0.047420
H 3.888531 -1.642940 1.101176
H 2.143339 -1.516999 1.351663