22

C 0.074315 1.694339 0.046949
C -0.085462 0.333682 0.367873
C -0.744466 -0.591117 -0.597515
O -0.100858 2.176299 -1.095819
H -0.091206 0.060265 1.416662
H -0.472306 -0.319650 -1.617831
H -0.440195 -1.626941 -0.433926
C -2.881585 -1.135349 1.079163
H -2.479127 -0.422661 1.796244
H -2.432573 -2.113995 1.243955
H -3.957864 -1.209588 1.216448
S -2.579956 -0.577580 -0.607276
C 0.631714 2.610300 1.120292
H 0.723011 2.120834 2.088096
H 1.617401 2.961401 0.806793
H -0.010127 3.486601 1.218641
H 1.405665 0.027183 -0.031110
S 2.766423 -0.565343 -0.429299
C 2.466014 -2.070931 0.546802
H 1.635854 -1.893874 1.231456
H 2.214381 -2.912326 -0.095395
H 3.347302 -2.326424 1.130329