22

C -0.525852 1.384653 0.170331
C -0.001606 0.356638 -0.640138
C 1.079894 -0.525720 -0.107719
O -0.381137 1.448457 1.412663
H -0.039038 0.500576 -1.714306
H 0.928531 -0.692300 0.959191
H 1.097090 -1.496197 -0.610028
C 3.758092 -1.084187 0.370429
H 3.508533 -1.252970 1.416573
H 4.796818 -0.769718 0.298770
H 3.627277 -2.009204 -0.188836
S 2.730004 0.226512 -0.323688
C -1.371311 2.457956 -0.494507
H -1.610242 2.225185 -1.531039
H -2.293074 2.603224 0.069225
H -0.820208 3.400496 -0.467494
H -1.113616 -0.721672 -0.385480
S -2.155282 -1.788503 -0.048771
C -3.451749 -0.523528 0.105855
H -3.539546 -0.170366 1.131411
H -3.204753 0.322764 -0.534460
H -4.409036 -0.930510 -0.210994