17

C 0.973655 -1.522416 -0.111344
C -0.156295 -1.014446 -0.709225
C -1.174331 -0.392904 0.081279
O -2.219571 0.056454 -0.671535
O -1.180453 -0.247386 1.297699
C -3.271470 0.687298 0.043345
H -4.006305 0.984214 -0.699139
H -3.722572 0.001433 0.759242
H -2.907516 1.563864 0.577846
H 1.645114 -2.143533 -0.683997
H 0.953082 -1.710428 0.951282
H -0.269405 -0.986731 -1.783498
S 2.681662 0.148159 0.191234
C 1.673852 1.559343 -0.297695
H 1.470615 2.225757 0.540164
H 2.145515 2.135342 -1.092758
H 0.712609 1.185738 -0.676360