17

C 0.973727 -1.522436 -0.110974
C -0.156310 -1.014789 -0.708972
C -1.174265 -0.392935 0.081364
O -2.219550 0.056181 -0.671547
O -1.180315 -0.246990 1.297718
C -3.271381 0.687319 0.043172
H -4.006167 0.984159 -0.699392
H -3.722588 0.001669 0.759213
H -2.907333 1.563960 0.577487
H 1.645156 -2.143769 -0.683432
H 0.953169 -1.710134 0.951712
H -0.269471 -0.987431 -1.783249
S 2.681641 0.148260 0.190980
C 1.673581 1.559350 -0.297690
H 0.712504 1.185643 -0.676667
H 1.470020 2.225434 0.540352
H 2.145265 2.135720 -1.092471