16

C 1.990916 -0.894101 0.126105
C 1.179836 0.248374 0.358277
C -0.091800 0.051568 0.847503
O 3.131717 -0.897468 -0.349092
H -0.369175 -0.929409 1.211722
H -0.648300 0.877598 1.268462
C -3.153438 -0.227880 0.508109
H -2.750504 0.115789 1.465339
H -4.042451 0.363620 0.293376
H -3.456958 -1.267260 0.629419
S -1.901265 -0.041172 -0.793804
H 1.530770 -1.857160 0.421305
C 1.683063 1.600396 -0.054859
H 2.704372 1.767234 0.291019
H 1.698255 1.706942 -1.144105
H 1.049030 2.390999 0.346249