16

C -2.127813 -0.759451 -0.155647
C -1.372688 0.383551 0.268626
C -0.135735 0.190073 0.816528
O -1.767428 -1.936111 -0.119244
H 0.389147 1.006887 1.292498
H 0.169856 -0.808242 1.095521
C 2.895308 -0.287622 0.620369
H 2.521287 0.155655 1.546932
H 2.924200 -1.368780 0.757392
H 3.916794 0.062267 0.475798
S 1.834191 0.180170 -0.778878
H -3.138117 -0.529346 -0.547240
C -1.902793 1.759166 -0.028663
H -1.677220 2.458483 0.777190
H -2.985359 1.745131 -0.164623
H -1.465890 2.169807 -0.944750