17

C -0.669978 -0.761509 0.739626
C 0.487415 -1.318569 0.242845
C 1.679322 -0.572821 -0.013479
O 1.578454 0.751554 0.289903
O 2.729756 -1.023361 -0.459514
C 2.748721 1.526555 0.076529
H 2.495578 2.541493 0.368612
H 3.575619 1.159728 0.683253
H 3.044511 1.503915 -0.971347
H -0.628019 0.201545 1.227259
H -1.459463 -1.415407 1.082740
H 0.517093 -2.353302 -0.068622
S -2.230055 0.197361 -0.800387
C -3.448942 0.441078 0.521823
H -4.086563 1.300060 0.318079
H -4.085870 -0.434220 0.648628
H -2.936910 0.624461 1.470424