16

C -1.637710 -0.081614 0.166756
C -0.748198 -0.761492 -0.744861
C 0.275907 -1.536693 -0.289553
O -1.531973 -0.140338 1.394136
H -0.879383 -0.583505 -1.804384
H 0.305754 -1.815231 0.752627
H 0.861027 -2.137093 -0.968467
C 1.505753 1.478306 -0.188754
H 1.444453 2.108178 0.698768
H 0.479639 1.267805 -0.521835
H 2.000914 2.044039 -0.977623
S 2.346864 -0.082196 0.148695
C -2.776495 0.712847 -0.438302
H -2.531715 1.089273 -1.429800
H -3.646739 0.059292 -0.532962
H -3.043544 1.536956 0.219748