16

C -2.086146 -0.055435 -0.004248
C -1.045632 -0.986959 0.295902
C 0.188533 -0.618016 0.782486
O -3.189715 -0.402559 -0.450947
H -1.241795 -2.022057 0.041391
H 0.329603 0.359155 1.222598
H 0.862545 -1.378304 1.151112
C 3.140840 0.228713 0.499499
H 2.647370 0.261262 1.475617
H 3.689822 1.161246 0.376397
H 3.858687 -0.590566 0.516788
S 1.899082 0.008891 -0.806509
C -1.822616 1.420383 0.232738
H -1.692508 1.621292 1.297348
H -0.906668 1.734454 -0.270582
H -2.664516 1.999628 -0.137210