16

C 1.966469 0.186865 0.060046
C 1.037753 -0.842938 0.442568
C -0.218811 -0.531550 0.879482
O 1.690195 1.391013 0.059939
H 1.339271 -1.874280 0.317517
H -0.864703 -1.290307 1.295789
H -0.441714 0.490551 1.151009
C -3.104427 0.446796 0.503037
H -2.947093 1.516158 0.646199
H -2.875488 -0.053122 1.448009
H -4.160814 0.285758 0.291412
S -2.056571 -0.211103 -0.827613
C 3.355258 -0.237109 -0.372009
H 3.523541 -1.305616 -0.260331
H 3.498066 0.037779 -1.418280
H 4.095043 0.310228 0.212234