16

C -1.705684 0.002919 -0.092905
C -0.777795 -0.907357 -0.691104
C 0.244610 -1.511648 0.006323
O -2.645096 0.517540 -0.717424
H -0.868631 -1.050119 -1.761779
H 0.210335 -1.558282 1.083584
H 0.810213 -2.302405 -0.463600
C 1.439205 1.394867 -0.461241
H 1.342290 2.160503 0.308369
H 0.431811 1.140302 -0.817378
H 1.992293 1.814391 -1.300582
S 2.218989 -0.102256 0.168603
C -1.512467 0.353335 1.370608
H -1.710948 -0.515085 2.001288
H -0.481419 0.661001 1.558003
H -2.196204 1.152780 1.643745