17

C -1.336086 0.561259 -1.033107
C -0.504475 1.663028 -0.376708
C 0.055954 0.972842 0.850468
C -0.757034 -0.098218 1.182314
C -1.640135 -0.408116 0.107386
H -2.249048 0.901980 -1.518732
H -0.738944 0.020983 -1.774373
H -1.152774 2.479875 -0.045667
H 0.264632 2.081250 -1.019171
O -2.507015 -1.288575 0.040709
H -0.703457 -0.676610 2.093658
H 0.610279 1.539827 1.582369
C 1.625631 -1.510684 -0.418855
H 2.300275 -2.269764 -0.024670
H 1.536453 -1.652585 -1.495878
H 0.636875 -1.671899 0.028075
S 2.180544 0.154680 -0.001267