17

C -1.336190 0.561284 -1.033043
C -0.504613 1.663060 -0.376610
C 0.055911 0.972853 0.850506
C -0.756969 -0.098281 1.182301
C -1.640107 -0.408173 0.107413
H -2.249207 0.901972 -1.518589
H -0.739050 0.021102 -1.774376
H -1.152972 2.479831 -0.045500
H 0.264445 2.081378 -1.019068
O -2.506917 -1.288695 0.040741
H -0.703302 -0.676736 2.093599
H 0.610284 1.539837 1.582369
C 1.625754 -1.510764 -0.418550
H 1.536918 -1.653168 -1.495531
H 0.636858 -1.671785 0.028144
H 2.300271 -2.269668 -0.023804
S 2.180523 0.154808 -0.001580