16

C 2.025929 -0.222633 0.322221
C 1.102338 0.651269 -0.315544
C -0.008035 1.107314 0.348423
O 3.071038 -0.668685 -0.155393
H 1.289700 0.935544 -1.345990
H -0.077872 0.876989 1.404549
C -0.924515 -1.988573 -0.121017
H -1.244815 -2.619976 -0.949462
H 0.112390 -1.690132 -0.315834
H -0.938716 -2.587955 0.789302
S -1.945054 -0.504805 0.018098
H 1.752977 -0.494863 1.361371
C -0.774008 2.308209 -0.116104
H -1.771939 2.341073 0.314930
H -0.859452 2.318991 -1.201891
H -0.239963 3.213163 0.188733