16

C 2.484692 -0.375707 -0.130261
C 1.574201 0.688233 -0.393812
C 0.366532 0.794523 0.249806
O 2.313521 -1.314873 0.650780
H 1.847405 1.400536 -1.163329
H 0.210112 0.161533 1.114624
C -2.519625 -0.544656 0.700370
H -1.956525 -0.174148 1.562610
H -3.317074 0.169768 0.494593
H -2.978472 -1.489252 0.990976
S -1.413952 -0.754075 -0.726200
H 3.434097 -0.330392 -0.695646
C -0.442590 2.052532 0.176058
H -0.419341 2.470987 -0.829558
H -1.476779 1.893568 0.469924
H -0.007613 2.792033 0.855808