16

C -2.041327 -0.543778 0.258384
C -1.188109 0.536885 0.652697
C -0.338169 1.141408 -0.227801
O -2.123236 -1.036449 -0.866288
H -1.199129 0.824279 1.697810
H -0.450576 0.886296 -1.272449
C 1.140758 -1.742975 0.580163
H 0.180565 -1.449047 1.023791
H 0.961387 -2.609209 -0.057334
H 1.799072 -2.047466 1.393667
S 1.820341 -0.345946 -0.341511
H -2.679744 -0.954074 1.062669
C 0.367456 2.423800 0.081437
H 0.651045 2.472875 1.132125
H 1.258651 2.548773 -0.528766
H -0.304497 3.262257 -0.126307