26

C -2.156332 -1.499065 0.258658
C -0.950848 -1.105946 0.804705
C 0.124630 -0.686044 -0.040639
O 1.221205 -0.317122 0.683470
O 0.113901 -0.649512 -1.267008
C 2.414507 0.198157 0.051014
C 2.109473 1.483366 -0.710477
C 3.330362 0.501822 1.229517
C 3.055880 -0.856756 -0.843083
H -2.174282 -1.782138 -0.783049
H -2.881202 -1.996750 0.885084
H -0.818991 -1.007273 1.872638
H 4.278657 0.902392 0.872223
H 2.867662 1.235398 1.889867
H 3.527518 -0.406099 1.799725
H 3.045077 1.942733 -1.031618
H 1.493017 1.287724 -1.583131
H 1.590065 2.186621 -0.057529
H 2.436741 -1.064704 -1.710674
H 4.030916 -0.500647 -1.177960
H 3.204424 -1.779666 -0.280687
C -2.420015 1.628214 0.160532
H -1.509179 1.174930 0.575359
H -2.150706 2.152347 -0.756208
H -2.792388 2.354711 0.881428
S -3.617132 0.315688 -0.136783