26

C 1.797111 0.973626 -1.182895
C 1.041802 1.654781 -0.245236
C -0.262507 1.248081 0.178477
O -0.683702 0.104983 -0.428425
O -0.961688 1.843479 0.995744
C -1.964696 -0.495669 -0.133847
C -1.973697 -1.736055 -1.017774
C -2.047577 -0.905468 1.331980
C -3.106437 0.432902 -0.530460
H 1.298698 0.292518 -1.854647
H 2.669454 1.460906 -1.593248
H 1.450082 2.504208 0.285315
H -2.946014 -1.503904 1.487924
H -1.181246 -1.513462 1.596588
H -2.083509 -0.035993 1.981770
H -2.901435 -2.290166 -0.877617
H -1.135423 -2.385498 -0.763741
H -1.890315 -1.453613 -2.067433
H -4.051605 -0.106253 -0.455128
H -3.144122 1.305848 0.114608
H -2.980220 0.757440 -1.564282
C 2.248671 -0.838470 1.327614
H 1.590468 0.036587 1.411023
H 1.636313 -1.735059 1.420351
H 2.953907 -0.810057 2.156965
S 3.092629 -0.757098 -0.261510