26

C 1.974457 -1.076030 0.061863
C 0.705821 -1.089571 -0.475554
C -0.356442 -0.371991 0.160564
O -1.528686 -0.495537 -0.524948
O -0.273088 0.282853 1.194250
C -2.750603 0.131559 -0.072478
C -3.764154 -0.277278 -1.133390
C -3.172991 -0.418682 1.284910
C -2.607800 1.649203 -0.052484
H 2.090811 -0.788020 1.097813
H 2.716072 -1.768557 -0.310343
H 0.502411 -1.552023 -1.430419
H -4.172571 -0.054473 1.525222
H -3.206014 -1.508504 1.250436
H -2.485947 -0.108166 2.066569
H -4.741746 0.142317 -0.897604
H -3.454609 0.087042 -2.113049
H -3.850922 -1.363087 -1.175745
H -2.244078 2.000935 -1.018934
H -3.584513 2.099426 0.128911
H -1.920107 1.970233 0.724316
C 4.794468 0.014975 0.420052
H 4.410124 -0.601244 1.237670
H 5.425122 -0.615109 -0.206690
H 5.417078 0.794393 0.856851
S 3.411034 0.724575 -0.515644