25

C -0.244041 1.718214 0.076830
C -0.060428 0.421258 -0.432575
C 0.826787 -0.625051 0.189517
O 0.002966 2.153342 1.218264
H -0.150120 0.361449 -1.514687
C 0.486467 -0.915995 1.651991
C 0.730849 -1.917611 -0.619227
C 2.861834 0.542873 -1.425693
H 2.666742 -0.218477 -2.179063
H 3.903102 0.849871 -1.498863
H 2.219692 1.403922 -1.601059
S 2.619096 -0.095587 0.238985
H -0.731375 2.408707 -0.642738
H -1.475967 -0.173507 -0.069267
S -2.890196 -0.721365 0.170437
C -3.619614 0.530716 -0.924762
H -4.449033 1.033567 -0.433308
H -2.856558 1.274356 -1.163292
H -3.976449 0.086837 -1.851339
H 0.502828 -0.002361 2.240436
H -0.513036 -1.351127 1.711352
H 1.192870 -1.634542 2.073494
H -0.309828 -2.250393 -0.647170
H 1.060974 -1.767422 -1.647990
H 1.338913 -2.702799 -0.169858