25

C 0.137943 1.834641 0.130609
C -0.010766 0.522834 -0.346179
C 0.721243 -0.660137 0.226618
O -0.271253 2.876863 -0.421246
H -0.258055 0.440248 -1.404183
C 0.017318 -1.956686 -0.177835
C 0.842830 -0.613783 1.748944
C 3.161747 0.757901 -0.194060
H 2.602207 1.542896 -0.698793
H 4.173464 0.727950 -0.593430
H 3.213507 0.971530 0.872042
S 2.427271 -0.853056 -0.511794
H 0.582924 1.932618 1.139048
H -1.462148 0.387888 0.198025
S -2.974866 0.154358 0.494718
C -3.232493 -0.874287 -0.982285
H -3.259846 -1.932212 -0.728242
H -4.168122 -0.606108 -1.467398
H -2.416728 -0.709112 -1.686171
H 0.591786 -2.829878 0.136810
H -0.963341 -1.995944 0.298789
H -0.123156 -2.001224 -1.258659
H -0.148798 -0.476832 2.187862
H 1.261920 -1.549908 2.118093
H 1.479012 0.199450 2.094525