25

C -0.291049 1.589295 -0.365816
C -0.025977 0.247715 -0.697514
C 0.846128 -0.700445 0.088689
O -0.197974 2.166915 0.735629
H -0.037847 0.052570 -1.767421
C 0.694128 -0.564502 1.602126
C 0.546899 -2.144890 -0.319629
C 2.880424 1.282180 -0.158759
H 2.604329 1.604689 0.842733
H 2.289958 1.833096 -0.888103
H 3.937312 1.480369 -0.325238
S 2.642952 -0.489708 -0.360599
H -0.711331 2.167668 -1.214857
H -1.435107 -0.305371 -0.293817
S -2.838197 -0.819074 0.104507
C -3.633725 0.740207 -0.376552
H -4.478299 0.553409 -1.035677
H -3.980775 1.291153 0.494903
H -2.908061 1.357035 -0.909788
H -0.361170 -0.660006 1.867739
H 1.256309 -1.354194 2.102627
H 1.035642 0.404595 1.954294
H 1.255439 -2.835940 0.140910
H -0.456686 -2.417208 0.011364
H 0.597025 -2.264015 -1.402483