25

C -0.226682 1.661898 -0.749050
C 0.221069 1.021339 0.411730
C 1.450980 0.136991 0.500770
O -1.019884 2.630967 -0.806920
H 0.055238 1.584159 1.331930
C 1.340491 -0.780109 1.719980
C 2.724969 0.982383 0.632250
C 0.208873 -1.765001 -1.226700
H -0.069376 -2.312671 -0.329080
H 0.372044 -2.470321 -2.039270
H -0.593378 -1.083132 -1.495800
S 1.758181 -0.876449 -1.003460
H 0.106578 1.207279 -1.701640
H -1.070460 0.165557 0.710130
S -2.403119 -0.520075 1.062360
C -3.033119 -0.446256 -0.639940
H -3.019338 -1.428836 -1.107820
H -4.051820 -0.064777 -0.648960
H -2.406990 0.229885 -1.222860
H 2.250292 -1.366548 1.850630
H 1.188510 -0.171780 2.615700
H 0.490462 -1.456161 1.633610
H 2.649618 1.601673 1.527770
H 3.614710 0.354804 0.723730
H 2.842508 1.640043 -0.229340