25

C -0.701520 1.776022 -0.786328
C 0.078401 0.607338 -0.792468
C 1.258349 0.452112 0.158456
O -0.803602 2.638444 0.111896
H 0.198269 0.157922 -1.774345
C 2.247492 1.613593 0.000403
C 0.823883 0.360713 1.621525
C 1.022807 -2.352875 -0.257120
H 0.263302 -2.201762 -1.021010
H 0.545937 -2.427366 0.718585
H 1.557113 -3.278817 -0.459938
S 2.247496 -1.032510 -0.290981
H -1.339457 1.888821 -1.686515
H -1.061986 -0.365211 -0.270660
S -2.215513 -1.283224 0.206814
C -3.490373 -0.014211 -0.040984
H -3.713960 0.512897 0.884264
H -3.141630 0.709302 -0.778131
H -4.403484 -0.471564 -0.415121
H 3.112671 1.489158 0.655707
H 2.595307 1.688224 -1.030449
H 1.738250 2.540042 0.264911
H 1.695490 0.323895 2.276627
H 0.228523 1.241696 1.863935
H 0.208496 -0.519203 1.802752