22

C 1.645050 0.069623 -0.322836
C 0.727112 -0.108408 0.749467
C -0.422347 0.654934 0.990326
O 2.663068 -0.646177 -0.444978
H -0.888193 0.407786 1.936895
C -1.347346 -1.373862 -1.236431
H -1.442418 -1.094559 -2.285228
H -0.285319 -1.325890 -0.966212
H -1.683725 -2.402924 -1.116143
S -2.251259 -0.245768 -0.160985
C 1.400447 1.118040 -1.394317
H 2.099716 0.945771 -2.209344
H 0.378343 1.059961 -1.772620
H 1.554302 2.125711 -1.007535
C -0.630391 2.114392 0.656163
H 0.143778 2.716332 1.141412
H -0.610410 2.328641 -0.406088
H -1.597763 2.438368 1.037596
C 0.958161 -1.329641 1.605941
H 0.194337 -1.410404 2.379799
H 0.935180 -2.251521 1.015552
H 1.933651 -1.306026 2.097626