22

C -1.724082 -0.204820 -0.199900
C -0.681094 0.724425 0.078084
C 0.452022 0.790287 -0.734572
O -2.776805 -0.288362 0.467191
H 0.388170 0.309275 -1.699714
C 1.018472 -1.779886 1.019351
H 0.883617 -2.771374 0.587768
H 1.417568 -1.888123 2.026968
H 0.034623 -1.299985 1.095184
S 2.074554 -0.731708 0.004613
C -1.554770 -1.163587 -1.371164
H -2.354397 -1.899366 -1.337885
H -1.607333 -0.634135 -2.323907
H -0.588717 -1.670882 -1.331389
C 1.325506 2.016515 -0.732156
H 0.788189 2.845600 -1.203588
H 1.587998 2.320166 0.279487
H 2.245736 1.847846 -1.289400
C -0.749741 1.547304 1.335608
H 0.110343 1.341948 1.983896
H -0.746494 2.623313 1.141105
H -1.655606 1.308511 1.888640