22

C -1.802765 -0.660850 -0.252804
C -0.992333 0.508201 -0.109532
C 0.300306 0.472080 -0.616970
O -1.418300 -1.707696 -0.808540
H 0.520146 -0.351122 -1.285172
C 3.186909 -0.735499 -0.266237
H 3.743147 -1.652948 -0.077324
H 2.774035 -0.799658 -1.276886
H 3.888010 0.098798 -0.243183
S 1.843881 -0.527206 0.937901
C -3.221535 -0.641854 0.296594
H -3.798931 0.188325 -0.111692
H -3.710304 -1.578737 0.042441
H -3.216081 -0.526287 1.382068
C 1.068237 1.739636 -0.862183
H 0.589540 2.294591 -1.676831
H 1.072755 2.382817 0.016129
H 2.097859 1.539261 -1.149628
C -1.445606 1.713995 0.673715
H -1.370015 2.635891 0.090757
H -2.476666 1.629978 1.007654
H -0.828461 1.861703 1.568060