22

C 2.048478 -1.460567 0.154202
C 0.683161 -1.280083 0.543047
C -0.244193 -0.778657 -0.326765
O 2.534883 -1.215531 -0.949883
H 0.067063 -0.684697 -1.359416
C 1.585179 1.825183 0.742146
H 2.485517 2.090775 0.187181
H 1.488928 2.507065 1.587059
H 1.730773 0.814889 1.146148
S 0.110800 1.844350 -0.300185
H 2.710191 -1.862972 0.943809
H 0.434952 -1.504813 1.572340
C -1.732787 -0.842393 -0.103295
H -1.984942 -1.888596 -0.326174
C -2.152252 -0.562975 1.335152
H -1.854775 0.450288 1.609510
H -3.235096 -0.647566 1.434935
H -1.698114 -1.260862 2.037787
C -2.524160 0.016832 -1.084615
H -2.423643 1.072221 -0.833888
H -2.171427 -0.127404 -2.107125
H -3.581847 -0.247729 -1.049382