22

C -2.689455 -0.492755 0.382201
C -1.514358 0.273697 0.623679
C -0.476185 0.305210 -0.277814
O -2.914549 -1.215063 -0.593936
H -0.679630 -0.114208 -1.255066
C 2.664176 -1.291338 -0.356551
H 3.009847 -0.431374 0.220513
H 3.355707 -2.114799 -0.175554
H 2.724693 -1.033635 -1.414652
S 0.970663 -1.758792 0.119737
H -3.466937 -0.415006 1.165148
H -1.446410 0.786604 1.574418
C 0.621431 1.334689 -0.241121
H 1.450043 0.958843 -0.842073
C 0.109204 2.616036 -0.914830
H -0.702637 3.052870 -0.331352
H 0.913608 3.349288 -0.988589
H -0.263581 2.416023 -1.920074
C 1.134710 1.632721 1.161287
H 0.363367 2.109697 1.768635
H 1.445421 0.713137 1.658049
H 1.985164 2.314177 1.115185