22

C 0.243068 -2.232001 0.080831
C 0.090694 -1.183936 1.043711
C 0.378872 0.138864 0.839937
O 0.659182 -2.133854 -1.072948
H 0.232962 0.796765 1.690056
C -2.810332 -0.373019 -0.127761
H -3.168403 -0.638115 -1.122655
H -2.163034 -1.189103 0.219417
H -3.669816 -0.323252 0.541070
S -1.868674 1.168720 -0.147039
H -0.064958 -3.230561 0.445145
H -0.384203 -1.475862 1.972547
C 1.305478 0.686996 -0.217307
H 0.969701 0.336750 -1.191299
C 1.340233 2.210746 -0.199063
H 1.669573 2.570410 0.779395
H 2.042257 2.586706 -0.944523
H 0.357142 2.630548 -0.405592
C 2.717250 0.134805 0.027441
H 3.078410 0.433455 1.014215
H 2.724391 -0.951950 -0.030980
H 3.409730 0.530791 -0.717323