22

C -1.417716 1.814705 -0.249452
C -0.296054 1.134322 0.297739
C 0.397243 0.212283 -0.450909
O -2.102193 2.678108 0.305682
H 0.122487 0.139598 -1.497745
C -2.308063 -1.502510 0.057582
H -2.910559 -1.616586 -0.843690
H -2.806295 -2.030721 0.870033
H -2.286659 -0.438208 0.319995
S -0.612722 -2.079328 -0.172728
H -1.663134 1.527233 -1.291515
H -0.024353 1.351749 1.324284
C 1.819205 -0.196205 -0.153803
H 1.982615 -1.177581 -0.601634
C 2.765644 0.795368 -0.843880
H 2.652441 1.791858 -0.413815
H 3.802026 0.481139 -0.712172
H 2.562651 0.861202 -1.913440
C 2.130559 -0.281542 1.334460
H 2.086163 0.704707 1.800122
H 1.421573 -0.936385 1.840259
H 3.137231 -0.672148 1.487089