22

C -2.400588 -0.206089 0.115552
C -1.258208 -0.572065 -0.642982
C -0.102477 0.177295 -0.723081
O -3.442346 -0.863692 0.213851
H 0.579897 -0.089109 -1.520732
C 1.451789 -2.453270 -0.330908
H 2.135340 -3.242099 -0.019168
H 0.432186 -2.810258 -0.177453
H 1.593082 -2.290381 -1.401472
S 1.746000 -0.930605 0.611181
H -2.350239 0.768593 0.631561
H -1.317154 -1.510461 -1.182775
C 0.027933 1.612439 -0.239605
H -0.891806 2.117719 -0.550765
C 0.149854 1.789789 1.276105
H 1.157590 1.536262 1.603854
H -0.046433 2.829670 1.543043
H -0.546851 1.155481 1.821588
C 1.195181 2.303614 -0.939283
H 1.071280 2.294555 -2.022797
H 1.280026 3.341560 -0.615193
H 2.124955 1.787396 -0.694180