20

C -0.818768 0.980189 -0.836189
C 0.190482 0.126884 -1.275054
C 1.396721 -0.241255 -0.611067
O 1.561031 0.299431 0.630332
O 2.262183 -0.988397 -1.065402
C 2.764046 -0.042937 1.301425
H 2.732772 0.473041 2.256832
H 2.829852 -1.118237 1.461739
H 3.634699 0.280557 0.732594
H -1.562726 1.177364 -1.597552
C -0.623887 2.154188 0.089702
H 0.032874 -0.415711 -2.197536
H -1.584060 2.612443 0.323048
H -0.135796 1.871883 1.015738
H -0.001724 2.903930 -0.408788
S -2.412023 -0.162433 0.469214
C -1.762452 -1.832821 0.279711
H -2.438516 -2.477249 -0.281029
H -0.813791 -1.767181 -0.268542
H -1.563789 -2.295665 1.245466