20

C 1.011671 1.077530 0.268122
C -0.169313 0.924959 -0.435399
C -1.310666 0.332202 0.177189
O -2.380355 0.252441 -0.672639
O -1.410681 -0.080023 1.329199
C -3.556322 -0.330757 -0.134696
H -3.922737 0.240224 0.717611
H -4.293320 -0.317224 -0.932543
H -3.373124 -1.356572 0.183464
H 0.934626 0.969472 1.341637
C 2.063464 2.038895 -0.210519
H -0.231807 1.179953 -1.485103
H 1.750109 3.062087 0.015484
H 3.022221 1.863104 0.273905
H 2.201150 1.958210 -1.288501
S 2.330142 -0.897922 0.155653
C 1.063200 -2.022176 -0.459568
H 1.424062 -2.601281 -1.308524
H 0.713515 -2.711925 0.308151
H 0.209114 -1.422551 -0.799274