20

C 0.598040 0.834971 0.424058
C -0.572200 1.237499 -0.196204
C -1.777571 0.480064 -0.206719
O -1.704988 -0.690607 0.491267
O -2.826900 0.794478 -0.764350
C -2.894586 -1.462604 0.531448
H -3.205031 -1.755428 -0.470635
H -2.661460 -2.345616 1.119559
H -3.705651 -0.907460 1.001323
H 0.521189 0.038468 1.153858
C 1.673185 1.853588 0.686089
H -0.589245 2.144292 -0.786909
H 2.621095 1.393075 0.954122
H 1.825517 2.485308 -0.188696
H 1.360899 2.496537 1.514477
S 1.878372 -0.686187 -0.891473
C 3.018459 -1.192852 0.426949
H 3.951885 -0.630764 0.397717
H 2.553465 -1.020844 1.402199
H 3.256524 -2.253552 0.357490