22

C -2.359596 1.415076 1.204432
C -1.822719 1.117120 -0.197389
C -1.847069 -0.376789 -0.479252
C -0.735941 -1.175207 -0.087286
C 0.404369 -0.692160 0.530391
C 1.341440 -1.653176 1.205885
O -2.863567 -0.853738 -1.015215
H -2.401276 2.488250 1.388729
H -3.366563 1.012317 1.319143
H -1.727299 0.963103 1.969151
H -0.812860 1.513321 -0.310984
H -2.459764 1.593982 -0.942291
H 0.370099 0.297252 0.970093
H 2.303476 -1.200226 1.432723
H 0.891954 -1.986193 2.146358
H 1.504075 -2.532908 0.583989
C 3.012130 1.088110 0.254586
H 2.428493 1.223488 1.170369
H 3.887150 0.487292 0.502657
H 3.353699 2.071648 -0.065771
S 1.985619 0.299383 -1.018087
H -0.788230 -2.229406 -0.341262