22

C 3.800631 -0.209970 0.033779
C 2.505057 -0.005878 -0.734155
C 1.295714 0.236961 0.162837
C 0.172315 0.892505 -0.436409
C -0.983654 1.142813 0.267203
C -2.006023 2.122670 -0.229039
O 1.327557 -0.148116 1.339384
H 4.628452 -0.404238 -0.647425
H 4.046185 0.673815 0.623454
H 3.714471 -1.050332 0.719946
H 2.281889 -0.892978 -1.336000
H 2.593759 0.820379 -1.441520
H -0.922489 1.020155 1.340001
H -2.969045 1.984498 0.258064
H -1.662941 3.140281 -0.019203
H -2.144960 2.030219 -1.305892
C -1.226549 -1.993387 -0.512218
H -0.891759 -2.745806 0.201945
H -0.351459 -1.412874 -0.831468
H -1.627667 -2.502355 -1.388088
S -2.430774 -0.858506 0.205519
H 0.232553 1.145974 -1.489175