22

C -3.016920 -1.062788 -0.778567
C -2.650692 -0.151197 0.383364
C -1.290967 0.544686 0.364068
C -0.446597 0.387613 -0.781520
C 0.811291 0.930578 -0.929956
C 1.341503 2.118788 -0.180910
O -1.001734 1.216185 1.365419
H -4.002943 -1.498292 -0.618587
H -3.043264 -0.518612 -1.722532
H -2.303933 -1.881365 -0.881946
H -2.687926 -0.705915 1.323963
H -3.393065 0.645138 0.483668
H 1.271120 0.772860 -1.896686
H 2.397303 2.266679 -0.399206
H 0.796740 3.012862 -0.503076
H 1.200997 2.016791 0.889005
C 1.260292 -1.946495 0.579177
H 0.253315 -1.583704 0.331468
H 1.309664 -2.077899 1.659995
H 1.390383 -2.921141 0.109111
S 2.472603 -0.743292 -0.005047
H -0.783624 -0.291321 -1.551713