22

C 3.017708 0.809079 -0.783633
C 1.677735 0.099030 -0.877300
C 1.336166 -0.716021 0.368985
C 0.001666 -1.188957 0.511050
C -1.003840 -0.990585 -0.426341
C -2.253143 -1.826605 -0.367316
O 2.227410 -0.935610 1.208932
H 3.216911 1.376309 -1.692662
H 3.030740 1.500962 0.059022
H 3.829176 0.098489 -0.636893
H 1.666516 -0.577154 -1.737564
H 0.873194 0.817560 -1.054090
H -0.700763 -0.715959 -1.427084
H -2.037102 -2.830207 -0.744331
H -2.606967 -1.920823 0.659059
H -3.053177 -1.402907 -0.971816
C -0.774513 1.906544 0.877869
H -0.196887 2.661689 0.344755
H -0.085890 1.125846 1.225666
H -1.225838 2.367954 1.755043
S -2.018810 1.132000 -0.169855
H -0.238917 -1.683784 1.447237