22

C -3.578330 0.643323 0.779377
C -3.032389 -0.573344 0.046423
C -1.578631 -0.540144 -0.412719
C -0.771422 0.602139 -0.117049
C 0.536281 0.687947 -0.536183
C 1.268281 1.995793 -0.503990
O -1.165718 -1.530276 -1.035787
H -3.506297 1.542430 0.167185
H -4.628184 0.493386 1.029650
H -3.038242 0.825937 1.708363
H -3.627106 -0.773235 -0.848279
H -3.132437 -1.465460 0.670100
H 0.862474 -0.034714 -1.274233
H 1.052589 2.539206 0.415410
H 2.344044 1.868180 -0.594308
H 0.929278 2.611398 -1.343272
C 3.492892 -0.506917 -0.233386
H 4.040394 -1.448575 -0.258804
H 4.198606 0.289375 0.004347
H 3.109588 -0.321795 -1.241488
S 2.117801 -0.570927 0.951809
H -1.183875 1.398117 0.487837