28

C -0.747668 1.800857 -0.701103
C -0.021201 0.609841 -0.538436
C 1.226671 0.389591 0.296029
O -1.618168 1.943256 -1.601263
H -0.097346 -0.032131 -1.411206
C 2.452968 1.106821 -0.276137
C 1.078722 0.743431 1.781602
C 1.643847 -1.939507 -1.357057
H 0.651641 -1.961502 -1.802804
H 2.050751 -2.948988 -1.361232
H 2.299771 -1.299438 -1.943521
S 1.591711 -1.427372 0.369129
C -0.622499 2.938494 0.301958
H -1.022090 2.633420 1.271826
H 0.410227 3.249518 0.455863
H -1.198701 3.786380 -0.060954
H -1.229566 -0.102460 0.297169
S -2.335596 -0.965172 0.858711
C -2.071763 -2.232760 -0.415157
H -1.105580 -2.714791 -0.274581
H -2.857858 -2.981044 -0.346385
H -2.102334 -1.783854 -1.407107
H 2.268301 2.183035 -0.296153
H 3.341943 0.918669 0.329065
H 2.652280 0.790354 -1.299999
H 1.070867 1.821549 1.924552
H 0.157423 0.328134 2.190406
H 1.923331 0.347205 2.349529