28

C 0.648202 1.603335 -0.062976
C 0.150390 0.445777 -0.700631
C -0.939621 -0.433921 -0.138744
O 0.397620 1.984550 1.103399
H 0.192655 0.469002 -1.786353
C -1.149131 -1.628458 -1.066866
C -0.620531 -0.935061 1.269189
C -3.795771 -0.583406 0.294529
H -3.964500 -1.293918 -0.511488
H -4.703639 -0.001561 0.442712
H -3.575622 -1.118901 1.216092
S -2.487875 0.595859 -0.112205
C 1.672053 2.412061 -0.845977
H 1.784986 2.079349 -1.875985
H 1.390233 3.465481 -0.832293
H 2.638394 2.324602 -0.343127
H 1.461128 -0.463169 -0.649744
S 2.714006 -1.331026 -0.490347
C 3.019712 -0.696541 1.188378
H 2.295355 0.088803 1.401232
H 4.022765 -0.282566 1.265068
H 2.906876 -1.485745 1.928972
H -0.213330 -2.187056 -1.141082
H -1.914614 -2.303918 -0.683780
H -1.439708 -1.301785 -2.066049
H -1.440609 -1.533636 1.669463
H 0.267376 -1.570835 1.223840
H -0.418625 -0.100581 1.934745