28

C 0.952568 1.543033 -0.452405
C -0.082801 0.605029 -0.637223
C -1.251808 0.522792 0.329955
O 1.168465 2.212525 0.585828
H -0.302315 0.353807 -1.670183
C -0.819968 0.006610 1.703535
C -1.952615 1.876852 0.495438
C -1.686928 -2.099834 -0.702764
H -1.239173 -2.509676 0.199318
H -0.911279 -1.950052 -1.451137
H -2.425390 -2.801037 -1.086660
S -2.565780 -0.564687 -0.363316
C 1.958417 1.677967 -1.585764
H 1.691354 1.095080 -2.465172
H 2.048493 2.729176 -1.863274
H 2.937186 1.348387 -1.230278
H 0.867509 -0.660678 -0.414344
S 1.836866 -1.841272 -0.154920
C 2.758492 -0.939007 1.127509
H 3.551641 -1.576585 1.512487
H 3.201225 -0.031483 0.722796
H 2.096717 -0.667057 1.947660
H -1.663048 -0.006952 2.396107
H -0.400454 -0.997455 1.633450
H -0.046023 0.669763 2.092100
H -2.807566 1.801399 1.171625
H -1.236112 2.585330 0.908815
H -2.299999 2.252523 -0.467831