28

C 0.897985 1.588577 -0.357969
C -0.038766 0.550947 -0.515565
C -1.087081 0.260626 0.543288
O 1.103709 2.253547 0.689192
H -0.313767 0.329565 -1.541560
C -0.444482 -0.194374 1.857763
C -1.986570 1.469132 0.806987
C -3.058150 -0.524946 -1.363371
H -2.401876 -0.061954 -2.097895
H -3.807001 0.192722 -1.037004
H -3.559829 -1.371315 -1.827622
S -2.115399 -1.180453 0.026901
C 1.815147 1.863023 -1.539839
H 1.539226 1.305408 -2.433007
H 1.811767 2.930708 -1.763204
H 2.835522 1.589569 -1.259696
H 0.976228 -0.697005 -0.538716
S 1.993495 -1.833009 -0.477921
C 2.924953 -1.008678 0.850503
H 3.980582 -0.947427 0.594870
H 2.531476 -0.000691 0.976702
H 2.820685 -1.544830 1.791712
H 0.236758 0.585969 2.193904
H -1.203516 -0.365863 2.623291
H 0.126461 -1.112721 1.712623
H -2.475791 1.804862 -0.107437
H -2.752150 1.239560 1.551208
H -1.362212 2.284605 1.173823