28

C -1.353209 -1.629216 -0.189830
C -0.381777 -0.678955 -0.558493
C 0.953020 -0.586731 0.166702
O -1.373970 -2.281376 0.880175
H -0.365465 -0.414926 -1.611688
C 0.793894 -0.150330 1.623765
C 1.711331 -1.914659 0.105632
C 3.542665 0.598962 -0.075185
H 4.104206 1.431544 -0.493940
H 4.033569 -0.330509 -0.353596
H 3.531457 0.700187 1.008240
S 1.880110 0.708331 -0.764866
C -2.558713 -1.759358 -1.105847
H -2.435266 -1.236403 -2.052177
H -2.759610 -2.813969 -1.295756
H -3.429033 -1.345271 -0.590104
H -1.348020 0.487016 -0.061049
S -2.248234 1.675395 0.372186
C -1.038012 2.940598 -0.115447
H -0.211372 2.986399 0.591141
H -0.632690 2.717529 -1.101020
H -1.528947 3.910756 -0.148895
H 1.763964 -0.058142 2.115302
H 0.273025 0.804501 1.685742
H 0.208242 -0.900555 2.154541
H 2.656702 -1.867742 0.649642
H 1.090730 -2.684486 0.565265
H 1.915054 -2.196395 -0.927942