19

C -2.082746 -0.298087 -0.305528
C -1.090275 0.214245 0.562133
C -0.001767 0.978383 0.164866
O -3.060104 -0.981335 0.029789
C 1.153915 -2.059656 0.364790
H 1.619361 -2.226351 1.336527
H 0.079636 -1.911308 0.521262
H 1.284422 -2.960137 -0.234675
S 1.822939 -0.606791 -0.475078
H -1.963669 -0.057435 -1.376294
H -1.173355 -0.065800 1.607578
C 0.023787 1.709745 -1.153746
H -0.352371 1.115031 -1.980366
H -0.591980 2.611075 -1.067927
H 1.040520 2.018459 -1.391800
C 0.758012 1.688065 1.257615
H 1.738476 2.012467 0.917483
H 0.187671 2.574466 1.556948
H 0.879546 1.052698 2.133423