19

C 2.091595 -0.312211 0.135513
C 1.111889 0.466904 -0.527016
C -0.021653 0.987881 0.071106
O 3.118188 -0.776402 -0.380040
C -0.971028 -2.048610 0.231938
H -1.146313 -2.945413 -0.361552
H 0.101493 -1.823010 0.177943
H -1.219216 -2.273275 1.269673
S -1.898024 -0.635394 -0.399832
H 1.923986 -0.491021 1.211961
H 1.271403 0.647537 -1.585630
C -0.195263 0.950653 1.569719
H -0.055401 -0.048159 1.977945
H 0.539595 1.613560 2.037203
H -1.190431 1.293469 1.841439
C -0.712364 2.136297 -0.613557
H -1.751339 2.219963 -0.300768
H -0.199161 3.064620 -0.340270
H -0.670794 2.033772 -1.696529