19

C 2.379981 -0.443584 0.298332
C 1.448510 0.263359 -0.493328
C 0.239670 0.768542 -0.033496
O 3.459222 -0.912547 -0.091423
C -2.987843 -0.510669 0.320556
H -2.976073 -0.571307 1.409372
H -3.187469 0.527297 0.044497
H -3.822499 -1.111923 -0.041278
S -1.413399 -1.074476 -0.394456
H 2.113402 -0.576327 1.361197
H 1.682318 0.362942 -1.548630
C -0.461305 1.776399 -0.903905
H -0.331282 1.548580 -1.959868
H -1.524126 1.835636 -0.677598
H -0.022401 2.761421 -0.709287
C -0.053240 0.933458 1.435381
H -1.117498 1.102395 1.590677
H 0.484796 1.813279 1.803699
H 0.246809 0.074976 2.028659