19

C 2.414797 -0.399566 0.257266
C 1.426443 0.231917 -0.529194
C 0.237243 0.756203 -0.041389
O 3.475591 -0.885893 -0.161149
C -3.046160 -0.438674 0.135939
H -3.017866 0.261844 0.973572
H -3.423375 0.096258 -0.736380
H -3.763776 -1.220658 0.386268
S -1.395698 -1.137779 -0.174330
H 2.216121 -0.450810 1.341675
H 1.595122 0.246991 -1.601410
C -0.534950 1.681387 -0.943164
H -0.469764 1.368814 -1.983398
H -1.581974 1.745766 -0.652497
H -0.100487 2.683847 -0.859069
C 0.028025 1.032606 1.424735
H 0.396037 0.238043 2.066070
H 0.553769 1.957565 1.684158
H -1.029762 1.180711 1.634321