22

C -1.808180 -0.088344 -0.093213
C -0.695041 -0.555108 0.666889
C 0.516166 -1.024580 0.176691
O -1.874536 -0.030009 -1.332454
C 0.705296 2.264479 0.203968
H 0.417356 2.874988 -0.651950
H -0.196835 1.765351 0.581339
H 1.077376 2.923403 0.988083
S 1.912260 1.000174 -0.241803
C -3.018984 0.393921 0.690743
H -2.895294 0.307452 1.767834
H -3.212347 1.436802 0.434991
H -3.892389 -0.182325 0.382670
C 1.448015 -1.666189 1.175010
H 1.136025 -2.705172 1.327551
H 2.473849 -1.674125 0.811320
H 1.419136 -1.155810 2.135987
H -0.777173 -0.438781 1.741138
C 0.652891 -1.595103 -1.211441
H 1.703589 -1.690692 -1.481704
H 0.212996 -2.599542 -1.210371
H 0.132859 -0.998707 -1.950281