22

C 1.917928 -0.016967 -0.293467
C 0.697585 -0.625775 -0.704419
C -0.450235 -0.970064 0.010262
O 2.831555 0.206031 -1.113236
C -0.816229 2.165985 -0.045336
H -1.112052 3.034148 -0.633078
H -0.666584 2.485168 0.986991
H 0.140002 1.803412 -0.438791
S -2.030484 0.840260 -0.181777
C 2.184143 0.368472 1.152179
H 3.180761 0.798970 1.211373
H 1.458335 1.100481 1.506110
H 2.128070 -0.496051 1.812284
C -1.349744 -1.986686 -0.655850
H -0.949797 -2.988124 -0.464481
H -2.361620 -1.946967 -0.254272
H -1.389341 -1.836104 -1.732980
H 0.661795 -0.807567 -1.774741
C -0.480152 -1.079198 1.518447
H 0.201435 -1.874296 1.838304
H -0.191419 -0.160937 2.018790
H -1.484060 -1.339142 1.847912