20

C 0.878539 0.368486 -0.834486
C -0.390039 0.746858 -0.428634
C -1.363510 -0.281504 -0.246701
O -2.562311 0.197833 0.207559
O -1.229815 -1.487015 -0.452237
C -3.587362 -0.765930 0.385271
H -3.821665 -1.266264 -0.553687
H -3.295666 -1.517115 1.118284
H -4.457359 -0.220728 0.740397
H 1.004498 -0.608730 -1.279743
H 1.555152 1.130080 -1.201289
C -0.679408 2.156396 0.010814
H 0.114953 2.821912 -0.329684
H -1.623235 2.530221 -0.388217
H -0.738797 2.252243 1.100621
C 3.674224 -0.613438 -0.368399
H 3.475511 -1.599180 -0.789571
H 3.692461 0.107545 -1.188938
H 4.663726 -0.629184 0.085743
S 2.410798 -0.147034 0.846020