20

C -1.022812 0.822892 1.118926
C 0.108629 0.965619 0.326522
C 1.129713 -0.022813 0.443896
O 2.175011 0.185149 -0.418252
O 1.158650 -0.984957 1.212201
C 3.233640 -0.754966 -0.345502
H 2.882642 -1.758917 -0.582312
H 3.970505 -0.439263 -1.078833
H 3.681076 -0.766800 0.647681
H -0.959515 0.166405 1.973731
H -1.674861 1.676609 1.243759
C 0.169640 2.014736 -0.750654
H -0.580161 2.784172 -0.561329
H 1.144074 2.501722 -0.800152
H -0.032329 1.606410 -1.747671
C -1.627243 -1.203835 -1.154048
H -0.634072 -0.740381 -1.112544
H -1.514935 -2.267929 -0.949531
H -2.016104 -1.079427 -2.163824
S -2.680313 -0.388371 0.059037