20

C -0.795672 0.475729 -1.286543
C 0.104865 1.065673 -0.407996
C 1.286366 0.389249 0.012444
O 1.470379 -0.840867 -0.562483
O 2.121980 0.816638 0.810603
C 2.642752 -1.534321 -0.170962
H 2.628476 -2.479162 -0.707203
H 3.538946 -0.973413 -0.434271
H 2.649173 -1.718426 0.903062
H -0.466491 -0.365778 -1.875637
H -1.519521 1.114444 -1.774995
C -0.226992 2.360608 0.279427
H 0.649563 3.001731 0.381078
H -0.984407 2.906291 -0.284923
H -0.625227 2.205878 1.289596
C -1.546400 -0.991356 1.334025
H -1.228600 -2.029786 1.421070
H -0.651606 -0.357543 1.328501
H -2.139301 -0.731719 2.209906
S -2.461212 -0.685761 -0.187720