20

C 1.432899 -0.002864 -1.219741
C 0.362256 -1.090238 -1.203652
C -0.219424 -0.992907 0.197240
C 0.739655 -0.404197 1.019959
C 1.771360 0.200694 0.256708
H 2.322060 -0.243235 -1.800847
H 1.023145 0.937834 -1.600402
H 0.825300 -2.078186 -1.300948
H -0.391946 -0.993023 -1.979948
O 2.782712 0.807014 0.643095
H 0.681142 -0.350085 2.098961
C -1.051298 2.117513 0.163680
H -1.613913 2.785410 0.814929
H -0.122688 1.846629 0.679469
H -0.791433 2.658599 -0.746205
S -1.970762 0.604391 -0.180584
C -1.134547 -2.087537 0.660857
H -0.563942 -3.019957 0.718774
H -1.543860 -1.874031 1.646401
H -1.958775 -2.239108 -0.035909