23

C 0.621193 0.473646 0.637072
C -0.558196 0.989190 0.095764
C -1.715579 0.175366 -0.052576
O -1.578824 -1.095414 0.446395
O -2.790231 0.503532 -0.561399
C -2.724466 -1.922798 0.350730
H -2.444065 -2.878486 0.785427
H -3.564071 -1.499082 0.901273
H -3.024152 -2.062976 -0.687230
H 0.534383 -0.454687 1.186789
C 1.666977 1.420690 1.164090
C -0.581733 2.367616 -0.506924
H 0.134940 2.460663 -1.332014
H -1.570796 2.591260 -0.900394
H -0.325878 3.145739 0.217286
H 2.575494 0.898431 1.455853
H 1.925658 2.178990 0.427109
H 1.271291 1.934864 2.046499
S 1.907488 -0.608754 -0.969384
C 3.103285 -1.372960 0.161810
H 3.981790 -0.745655 0.311421
H 2.635912 -1.539319 1.136078
H 3.433252 -2.339117 -0.217717