23

C -1.012441 0.784977 -0.688383
C 0.141190 0.833125 0.093171
C 1.284123 0.133849 -0.391984
O 2.380506 0.222722 0.429240
O 1.375184 -0.505328 -1.442481
C 3.542409 -0.453637 -0.018432
H 3.359233 -1.522571 -0.123473
H 3.880678 -0.062373 -0.977308
H 4.302768 -0.282391 0.738748
H -0.866922 0.422779 -1.696797
C -2.082193 1.834150 -0.544937
C 0.099770 1.455846 1.462501
H -0.111975 2.528297 1.429296
H -0.693660 0.999060 2.067012
H 1.039129 1.320831 1.991715
H -1.714655 2.785150 -0.943465
H -2.981306 1.560745 -1.095490
H -2.354277 1.989251 0.497822
S -2.314267 -1.037534 -0.070295
C -1.060980 -1.984340 0.811136
H -0.772222 -2.887462 0.274383
H -0.172198 -1.350825 0.922666
H -1.403102 -2.262935 1.807105