19

C -2.116060 -0.727250 -0.549130
C -1.262524 0.297543 -0.073546
C -0.056736 0.484771 -0.731428
O -3.218829 -1.061321 -0.093032
C 3.251550 -0.275331 0.066532
H 3.484491 -0.212885 -0.996933
H 3.327352 0.726627 0.490139
H 4.012211 -0.897289 0.539196
S 1.592900 -0.975621 0.340400
H -1.727288 -1.263633 -1.437337
C 0.722404 1.757877 -0.600270
H 0.853920 2.036255 0.444561
H 1.701975 1.682185 -1.066171
H 0.170176 2.564942 -1.093595
H 0.069551 -0.049570 -1.665008
C -1.620189 1.076249 1.158845
H -2.582476 0.742833 1.544116
H -1.684580 2.150206 0.967422
H -0.871768 0.937686 1.945444