19

C 2.052977 -1.048834 0.057882
C 1.426713 0.229584 0.014287
C 0.185144 0.387618 0.596879
O 1.605236 -2.088321 0.556909
C -2.894495 -0.386823 0.407078
H -2.401418 -0.506307 1.376208
H -3.484031 0.529389 0.444165
H -3.578678 -1.225252 0.280797
S -1.657160 -0.343433 -0.922422
H 3.056040 -1.085955 -0.411937
C -0.371455 1.748829 0.886093
H -0.297986 2.401078 0.017477
H -1.410782 1.702945 1.201856
H 0.211091 2.206458 1.693654
H -0.154246 -0.421123 1.232240
C 2.089537 1.347719 -0.742545
H 1.498441 1.653766 -1.612303
H 2.234124 2.240317 -0.129235
H 3.069605 1.037622 -1.107493