19

C -1.748642 -0.581553 -0.696017
C -0.986565 0.421397 -0.036054
C 0.131712 0.911033 -0.681325
O -2.786421 -1.120090 -0.291930
C 1.252896 -1.941056 0.329144
H 0.173078 -1.749339 0.310392
H 1.477682 -2.688419 -0.431553
H 1.496576 -2.360762 1.304726
S 2.118577 -0.385200 0.038950
H -1.349378 -0.873400 -1.687297
C 0.732139 2.241667 -0.336659
H 0.828724 2.367425 0.740173
H 1.713845 2.364606 -0.789343
H 0.080024 3.038133 -0.710105
H 0.278897 0.582805 -1.703368
C -1.367263 0.866531 1.345718
H -2.244350 0.318339 1.685434
H -1.594892 1.933991 1.392018
H -0.551729 0.682424 2.052326