19

C -2.180592 -0.658954 -0.387013
C -1.201631 0.309540 -0.072426
C -0.074102 0.376043 -0.882087
O -3.232565 -0.898790 0.227050
C 2.855281 -0.055067 0.774371
H 3.289270 0.677063 0.093156
H 2.385326 0.484039 1.597251
H 3.667978 -0.653783 1.185777
S 1.662137 -1.128573 -0.081330
H -1.957627 -1.247693 -1.299039
C 0.777934 1.609572 -0.931812
H 1.085817 1.927789 0.063633
H 1.668954 1.458154 -1.536478
H 0.193052 2.425382 -1.368936
H -0.111473 -0.198770 -1.800164
C -1.324810 1.139001 1.172093
H -2.282927 0.949801 1.653282
H -1.251729 2.209838 0.968919
H -0.532797 0.894856 1.888724