19

C 0.869585 -1.627611 0.277608
O 0.273230 -2.561809 -0.249762
C 0.879019 -0.253631 -0.163741
C 0.160119 0.087672 -1.265339
C 1.595072 0.780542 0.666124
C 2.811223 1.388986 -0.031991
H 1.471467 -1.826211 1.185998
H -0.276497 -0.682130 -1.883370
H 0.222775 1.079091 -1.688943
H 0.891188 1.578566 0.923597
H 1.908487 0.331233 1.612091
H 2.520221 1.851834 -0.975849
H 3.285105 2.152176 0.586291
H 3.552119 0.619629 -0.253261
C -1.974306 0.152525 1.253570
H -2.096253 0.941050 1.996394
H -0.946427 -0.225653 1.339048
H -2.647611 -0.666080 1.508477
S -2.257168 0.760630 -0.423110