19

C -1.449309 -1.253680 0.077139
O -2.471866 -1.134509 0.758117
C -0.841640 -0.238981 -0.721185
C 0.278777 -0.566970 -1.443195
C -1.397671 1.157270 -0.679422
C -1.015825 1.897813 0.605399
H -0.942956 -2.238036 0.036001
H 0.620633 0.069487 -2.245846
H 0.588039 -1.601716 -1.499103
H -1.031952 1.715714 -1.543718
H -2.486853 1.119406 -0.758163
H -1.429373 2.907239 0.619786
H -1.392997 1.361524 1.476819
H 0.069424 1.964813 0.693343
C 1.670919 -0.307363 1.405413
H 1.819471 0.522736 2.095823
H 0.588837 -0.462155 1.307942
H 2.105022 -1.204405 1.846201
S 2.362258 0.049558 -0.222433