19

C -0.869534 1.627624 0.277545
O -0.273218 2.561783 -0.249946
C -0.879016 0.253615 -0.163704
C -0.160204 -0.087778 -1.265334
C -1.594983 -0.780497 0.666312
C -2.811260 -1.388935 -0.031588
H -1.471327 1.826293 1.185978
H 0.276331 0.681974 -1.883485
H -0.222901 -1.079234 -1.688847
H -1.908241 -0.331136 1.612307
H -0.891083 -1.578529 0.923716
H -3.285080 -2.152069 0.586809
H -3.552159 -0.619562 -0.252794
H -2.520416 -1.851848 -0.975463
C 1.974348 -0.152556 1.253448
H 0.946499 0.225691 1.338967
H 2.096261 -0.941122 1.996235
H 2.647717 0.665992 1.508368
S 2.257127 -0.760597 -0.423268