19

C 1.590429 1.534109 -0.075713
O 1.025995 2.548072 0.334660
C 1.117992 0.183437 0.030744
C -0.066626 -0.052240 0.670411
C 1.880795 -0.922677 -0.652357
C 2.450453 -1.964804 0.310182
H 2.567940 1.644233 -0.585091
H -0.528087 0.735711 1.247787
H -0.381157 -1.061243 0.898973
H 2.696675 -0.489315 -1.236349
H 1.224897 -1.424488 -1.371481
H 3.158802 -1.503414 0.999483
H 1.655007 -2.417002 0.904001
H 2.965001 -2.763517 -0.225458
C -3.110269 -0.614251 0.676881
H -2.611195 -0.331241 1.607679
H -4.116795 -0.198202 0.703186
H -3.193683 -1.700988 0.661389
S -2.176376 0.008965 -0.752644