19

C 1.794647 -0.523181 1.287317
C 1.822495 0.109832 -0.093716
C 0.692278 0.869538 -0.507162
C -0.419105 1.101241 0.287991
O 2.828854 -0.057837 -0.805724
C -1.380763 2.201758 -0.064818
H 0.858599 -1.059769 1.453277
H 2.635177 -1.205645 1.385457
H 1.871534 0.244256 2.059830
H 0.701957 1.236573 -1.528923
H -0.316565 0.917909 1.348505
H -0.942103 3.166850 0.204295
H -2.325570 2.099341 0.465648
H -1.582872 2.210359 -1.135533
S -1.966300 -0.719430 0.160121
C -0.873829 -1.939710 -0.591116
H 0.039206 -1.427015 -0.919508
H -0.592307 -2.728227 0.106683
H -1.331418 -2.397924 -1.466852