19

C -1.609273 0.017212 1.374915
C -1.771389 -0.223234 -0.112933
C -0.781805 0.259886 -1.025131
C 0.308655 1.075839 -0.770860
O -2.753433 -0.879712 -0.496280
C 0.397970 2.165014 0.267666
H -1.879039 1.043024 1.629653
H -2.268487 -0.660083 1.912898
H -0.573992 -0.142876 1.681361
H -0.871224 -0.152643 -2.024398
H 0.880633 1.314491 -1.658947
H -0.315044 2.956753 0.017234
H 1.396859 2.597967 0.266871
H 0.184601 1.824200 1.274476
S 2.170981 -0.244587 0.100783
C 1.340049 -1.844176 0.097398
H 1.251265 -2.254253 1.103220
H 0.326779 -1.706358 -0.301874
H 1.854164 -2.572389 -0.529109