19

C 3.427344 -0.182356 -0.457626
C 2.049146 -0.233771 0.173533
C 1.104815 0.768282 -0.210219
C -0.163605 0.818043 0.321146
O 1.811209 -1.141502 0.983510
C -1.016196 2.040158 0.154358
H 3.575504 0.699143 -1.077343
H 4.182974 -0.205479 0.327801
H 3.568018 -1.074076 -1.070932
H 1.392527 1.477881 -0.976491
H -0.349107 0.211723 1.199784
H -0.663900 2.814217 0.843389
H -2.062950 1.846206 0.374186
H -0.935079 2.434196 -0.858219
S -1.737220 -0.797116 -0.760873
C -3.001739 -0.632365 0.532636
H -3.457288 -1.593674 0.768034
H -2.548719 -0.248761 1.451883
H -3.794720 0.056548 0.240831