19

C 2.940720 -0.277989 -0.647222
C 1.739465 0.093813 0.200620
C 0.685062 0.838087 -0.425292
C -0.448051 1.195633 0.259273
O 1.726784 -0.262471 1.386248
C -1.407687 2.217079 -0.271312
H 3.845735 0.100220 -0.170766
H 3.023288 -1.365210 -0.685250
H 2.878086 0.109863 -1.661448
H 0.772833 1.060176 -1.482238
H -0.423058 1.068867 1.332778
H -2.384485 2.136113 0.200132
H -1.015820 3.218481 -0.068159
H -1.530846 2.117060 -1.349233
S -2.046209 -0.771776 0.201685
C -0.897393 -1.963524 -0.516393
H 0.012066 -1.432605 -0.827800
H -0.607400 -2.737036 0.195089
H -1.318019 -2.446342 -1.398089