19

C 2.940469 -0.277891 -0.647278
C 1.739439 0.094285 0.200719
C 0.684971 0.838457 -0.425222
C -0.448295 1.195686 0.259248
O 1.726711 -0.262087 1.386314
C -1.408144 2.216906 -0.271389
H 3.846380 0.094024 -0.167660
H 3.018496 -1.365273 -0.690837
H 2.880694 0.115155 -1.659679
H 0.772841 1.060695 -1.482131
H -0.423382 1.068866 1.332748
H -2.384969 2.135654 0.199949
H -1.016565 3.218403 -0.068142
H -1.531162 2.116918 -1.349329
S -2.045962 -0.772184 0.201648
C -0.896705 -1.963588 -0.516303
H -1.317249 -2.446825 -1.397808
H 0.012453 -1.432328 -0.827977
H -0.606247 -2.736784 0.195335