26

C -0.103593 1.176708 0.078642
C 0.957171 1.091135 1.035732
C 1.476162 -0.099552 1.496675
O -0.623589 2.212958 -0.321298
O -0.513671 -0.041440 -0.378318
C -1.680003 -0.106649 -1.196062
C -2.888099 -0.559354 -0.384735
C -3.224686 0.443465 0.714184
C -2.671289 -1.953530 0.195095
H 1.382702 2.038997 1.335184
H 2.121872 -0.087306 2.361833
H 0.910199 -1.006788 1.353947
H -1.860107 0.864858 -1.651826
H -1.457805 -0.834092 -1.977741
H -3.724023 -0.599963 -1.089931
H -2.400478 0.515477 1.427832
H -3.401703 1.437874 0.304691
H -4.113616 0.129014 1.262007
H -1.833337 -1.945835 0.894319
H -3.557102 -2.291258 0.733858
H -2.451728 -2.679447 -0.589259
S 3.257623 -0.930397 0.126378
C 2.934150 0.143537 -1.284369
H 3.841182 0.641522 -1.624336
H 2.501195 -0.400607 -2.123328
H 2.219968 0.917196 -0.973339