26

C -0.074828 -1.109294 0.122423
C -1.266721 -1.357649 -0.630352
C -2.492474 -1.387993 -0.004437
O 0.000182 -0.900346 1.326571
O 1.043092 -1.143074 -0.664543
C 2.313445 -0.914190 -0.061927
C 2.841333 0.476384 -0.383537
C 4.262916 0.608058 0.152486
C 1.934818 1.560138 0.186659
H -1.172945 -1.446227 -1.703116
H -2.518238 -1.507261 1.067964
H -3.350825 -1.767301 -0.537400
H 2.238840 -1.049700 1.017051
H 2.983676 -1.672421 -0.469470
H 2.865551 0.575181 -1.472890
H 4.271576 0.496082 1.239270
H 4.922199 -0.150994 -0.270690
H 4.676655 1.588082 -0.085109
H 0.915194 1.464121 -0.187073
H 1.900334 1.489565 1.275939
H 2.304091 2.551060 -0.080416
S -3.489863 0.787586 0.179263
C -2.066684 1.709843 -0.426392
H -1.324673 0.990002 -0.799095
H -2.334163 2.372778 -1.248240
H -1.596487 2.301241 0.359297