26

C 0.054431 -0.240799 -0.049455
C 1.083320 -0.824820 -0.855587
C 2.148842 -1.465579 -0.267100
O -0.013500 -0.252418 1.172782
O -0.905689 0.367357 -0.809456
C -2.041022 0.927191 -0.156702
C -3.267494 0.042193 -0.326729
C -4.479819 0.744084 0.275660
C -3.054824 -1.329330 0.302709
H 1.032406 -0.667856 -1.923485
H 2.813161 -2.061363 -0.873880
H 2.061954 -1.765229 0.766238
H -1.822214 1.073629 0.900996
H -2.212122 1.899074 -0.621575
H -3.433137 -0.086710 -1.400480
H -4.646834 1.719005 -0.184315
H -5.380634 0.145696 0.139612
H -4.337741 0.895818 1.348228
H -3.925828 -1.965460 0.141127
H -2.184433 -1.831469 -0.121077
H -2.897228 -1.232220 1.378960
S 3.938951 0.049080 0.287631
C 3.025972 1.567950 -0.039538
H 3.565811 2.222708 -0.722338
H 2.069671 1.303626 -0.510934
H 2.811024 2.120625 0.874662