26

C 0.033203 1.540348 0.316018
C 1.451327 1.607303 0.147996
C 2.125017 1.043917 -0.918284
O -0.596954 1.981687 1.271855
O -0.604136 0.933535 -0.728099
C -1.999987 0.674727 -0.623982
C -2.257165 -0.801284 -0.356516
C -3.758836 -1.063789 -0.375483
C -1.633914 -1.237445 0.963758
H 1.988417 2.055185 0.972241
H 1.577762 0.801986 -1.815814
H 3.161577 1.304986 -1.069329
H -2.431384 1.286419 0.168211
H -2.440563 0.967794 -1.577985
H -1.788926 -1.367363 -1.167410
H -3.968996 -2.121643 -0.217684
H -4.204819 -0.766950 -1.325746
H -4.253465 -0.502132 0.420481
H -1.781352 -2.305955 1.125936
H -0.561836 -1.036678 0.980592
H -2.092655 -0.699090 1.796257
S 2.650648 -1.244182 -0.581909
C 2.279057 -1.292544 1.180910
H 1.735137 -0.375186 1.443717
H 3.181406 -1.340839 1.789614
H 1.645824 -2.142783 1.430910