26

C -0.221664 1.815384 -0.049440
C 1.173055 1.912829 0.245071
C 1.914611 0.874290 0.766753
O -0.922460 2.703929 -0.525896
O -0.763053 0.603581 0.253371
C -2.154418 0.442814 0.003105
C -2.549407 -0.976155 0.368053
C -1.795161 -1.994545 -0.479549
C -4.057204 -1.135257 0.203739
H 1.645078 2.836659 -0.058664
H 2.908382 1.077693 1.140154
H 1.404759 0.051971 1.247915
H -2.718131 1.169065 0.592549
H -2.362440 0.635661 -1.053276
H -2.291587 -1.131348 1.419724
H -2.037736 -1.856663 -1.536422
H -0.717022 -1.888669 -0.362858
H -2.073710 -3.011397 -0.201116
H -4.346803 -0.967861 -0.836334
H -4.370766 -2.142117 0.479067
H -4.604792 -0.426150 0.825682
S 2.850305 -0.703158 -0.746392
C 3.675654 -1.623331 0.582155
H 3.606749 -2.698365 0.422822
H 4.728695 -1.356544 0.664983
H 3.195754 -1.397656 1.538910