26

C -0.224094 1.040174 0.161615
C -0.864743 0.447851 -0.990482
C -2.131470 0.825053 -1.321278
O -0.732248 1.876436 0.892372
O 1.040801 0.661508 0.482119
C 1.739775 -0.314962 -0.285370
C 3.130649 -0.479501 0.299751
C 3.922590 0.820081 0.213082
C 3.849786 -1.610494 -0.427802
H -0.373529 -0.342087 -1.535250
H -2.579791 0.478292 -2.238789
H -2.562068 1.705293 -0.871380
H 1.198153 -1.263780 -0.252968
H 1.811930 0.011674 -1.327408
H 3.013222 -0.754554 1.351651
H 4.912344 0.697840 0.653580
H 4.052959 1.111962 -0.832041
H 3.413696 1.630984 0.731948
H 4.846926 -1.759163 -0.014103
H 3.303642 -2.550848 -0.345968
H 3.960195 -1.373001 -1.488368
S -3.841756 -0.556813 -0.005814
C -2.598008 -1.423884 0.973625
H -2.688579 -2.505682 0.878633
H -1.597449 -1.141290 0.617744
H -2.658886 -1.166102 2.030960