26

C -0.309637 1.564078 -0.033698
C -1.592539 1.429903 -0.651034
C -1.970664 0.320784 -1.379664
O 0.089880 2.532838 0.606711
O 0.494463 0.481491 -0.214727
C 1.784431 0.530544 0.382531
C 2.496141 -0.778357 0.093840
C 3.839226 -0.791735 0.815717
C 2.676970 -0.990164 -1.405018
H -2.291369 2.227563 -0.440632
H -2.872608 0.369831 -1.971308
H -1.207025 -0.339921 -1.758674
H 2.350497 1.371876 -0.028475
H 1.682491 0.689400 1.458039
H 1.873701 -1.585520 0.491668
H 4.361023 -1.732555 0.641071
H 4.476620 0.016737 0.450016
H 3.716304 -0.665325 1.891998
H 1.719177 -0.988665 -1.923741
H 3.293912 -0.191917 -1.825664
H 3.174659 -1.939676 -1.604345
S -2.866125 -1.425211 -0.027169
C -2.331962 -0.749333 1.555017
H -1.990323 0.281394 1.392439
H -3.148835 -0.722565 2.274865
H -1.506758 -1.316228 1.985429