26

C -0.066564 0.242373 -0.084472
C -1.088832 1.142052 0.355098
C -2.151814 1.441762 -0.465836
O -0.005572 -0.329503 -1.166352
O 0.901248 0.057128 0.862002
C 2.009942 -0.763083 0.506329
C 3.068135 -0.003944 -0.282095
C 4.200516 -0.958626 -0.644135
C 3.588078 1.192578 0.506249
H -1.035511 1.502692 1.372299
H -2.061770 1.229546 -1.520377
H -2.810194 2.256724 -0.207141
H 2.430525 -1.104856 1.454165
H 1.660494 -1.627397 -0.058128
H 2.597698 0.352424 -1.201747
H 4.669789 -1.353806 0.260275
H 3.838764 -1.802288 -1.233309
H 4.969806 -0.445766 -1.221515
H 2.780706 1.874956 0.770360
H 4.066459 0.858104 1.430458
H 4.327774 1.746027 -0.073167
S -3.945208 -0.147204 -0.261447
C -3.050449 -1.332434 0.759235
H -2.090341 -0.884602 1.049568
H -3.596974 -1.572975 1.670193
H -2.843374 -2.258577 0.223773