20

C 2.475052 0.940885 -0.237570
C 1.100289 0.882224 0.074546
C 0.205586 0.323135 -0.828037
C -1.249384 0.508653 -0.753750
C -1.901911 1.139816 0.223116
C -3.387966 1.297863 0.275633
O 3.385956 1.389493 0.470846
H 2.733477 0.539235 -1.238568
H 0.782395 1.225164 1.051360
H 0.589396 0.120561 -1.820049
H -1.819369 0.081376 -1.571525
H -1.340620 1.575450 1.043488
H -3.863253 0.848948 -0.595848
H -3.799493 0.827179 1.171346
H -3.670095 2.351847 0.319058
C -0.042790 -1.784347 1.306599
H -0.867001 -1.106068 1.546521
H -0.192307 -2.714940 1.851846
H 0.885372 -1.325645 1.650816
S 0.017537 -2.086777 -0.471152