20

C -1.661197 -1.866867 0.301472
C -0.390260 -1.244894 0.469398
C 0.160655 -0.468976 -0.523238
C 1.554302 -0.007530 -0.535536
C 2.524376 -0.466967 0.253922
C 3.941371 0.007369 0.213673
O -2.383791 -1.806334 -0.697389
H -2.012185 -2.455811 1.169134
H 0.087502 -1.345636 1.435693
H -0.335052 -0.495884 -1.483538
H 1.796545 0.747155 -1.276935
H 2.292940 -1.241395 0.978746
H 4.237748 0.428707 1.176835
H 4.625960 -0.818480 0.010087
H 4.081263 0.769505 -0.551981
C -2.037024 1.495137 0.914473
H -3.062442 1.546548 0.548583
H -1.859479 0.472944 1.275181
H -1.938095 2.169005 1.764874
S -0.837357 1.874398 -0.377034