23

C 0.849516 0.931878 -0.063083
C -0.516754 1.268994 -0.287967
C -1.147119 2.257549 0.652805
C -1.295326 0.577832 -1.208894
O 1.593395 1.453702 0.769524
O 1.330874 -0.051364 -0.890396
C 2.650808 -0.520125 -0.632891
C 2.665741 -1.531146 0.496393
H -1.395253 1.807055 1.621913
H -0.488029 3.102127 0.856547
H -2.076014 2.644325 0.231210
H -0.801085 -0.017532 -1.960298
H -2.222685 1.032813 -1.530509
H 3.303424 0.322112 -0.409464
H 2.977084 -0.978082 -1.565426
H 2.014220 -2.372709 0.260872
H 3.676609 -1.909202 0.650860
H 2.321723 -1.070088 1.421330
C -1.332994 -1.397096 1.181496
H -1.892721 -1.365875 2.115434
H -0.774288 -2.331188 1.137594
H -0.614097 -0.568360 1.187235
S -2.416642 -1.190089 -0.242342