23

C -0.755354 0.524530 0.551704
C 0.408123 1.205904 0.085987
C 0.420128 1.888974 -1.254880
C 1.579840 1.055104 0.816150
O -0.867964 -0.141514 1.581767
O -1.833456 0.684199 -0.282558
C -3.015886 -0.038663 0.047978
C -2.929791 -1.477581 -0.420651
H 0.427608 1.178016 -2.089376
H -0.445703 2.535960 -1.399017
H 1.316597 2.503401 -1.349538
H 1.499202 0.697290 1.831382
H 2.391845 1.746771 0.637136
H -3.187521 0.010845 1.121948
H -3.822658 0.486311 -0.461112
H -3.859364 -2.002229 -0.198902
H -2.760238 -1.517347 -1.496692
H -2.112006 -1.990840 0.083189
C 1.498656 -1.624145 -0.748183
H 0.625828 -0.961587 -0.799212
H 1.209370 -2.524910 -0.207610
H 1.774800 -1.898206 -1.765536
S 2.832456 -0.738105 0.076940