23

C 0.755426 -0.524470 -0.551609
C -0.408079 -1.205821 -0.085931
C -0.420145 -1.888886 1.254938
C -1.579765 -1.055106 -0.816213
O 0.868086 0.141602 -1.581640
O 1.833510 -0.684209 0.282673
C 3.015932 0.038665 -0.047860
C 2.929858 1.477557 0.420852
H -1.316862 -2.502931 1.349725
H 0.445432 -2.536251 1.398943
H -0.427180 -1.177939 2.089443
H -2.391735 -1.746823 -0.637226
H -1.499049 -0.697390 -1.831473
H 3.822726 -0.486343 0.461161
H 3.187510 -0.010776 -1.121842
H 3.859371 2.002255 0.198976
H 2.111972 1.990802 -0.082840
H 2.760470 1.517274 1.496921
C -1.498923 1.624122 0.748108
H -0.626046 0.961640 0.799249
H -1.775253 1.898124 1.765427
H -1.209637 2.524932 0.207610
S -2.832519 0.737995 -0.077254