23

C 0.689195 1.039675 0.045855
C -0.618736 1.147366 -0.509179
C -1.485099 2.272794 -0.016605
C -1.140268 0.155248 -1.331537
O 1.221886 1.848843 0.808323
O 1.377056 -0.079037 -0.341997
C 2.687884 -0.232452 0.190448
C 3.242000 -1.537959 -0.331213
H -0.934329 3.212495 0.040067
H -2.335913 2.417159 -0.683956
H -1.888886 2.080893 0.985078
H -0.459330 -0.540837 -1.795317
H -2.012112 0.397422 -1.924815
H 3.308832 0.611625 -0.114067
H 2.641186 -0.230337 1.280585
H 4.247701 -1.697228 0.056178
H 3.289121 -1.529353 -1.419767
H 2.615503 -2.372974 -0.018395
C -1.489619 -1.173512 1.440899
H -0.921647 -0.237751 1.377859
H -0.798286 -1.974970 1.699315
H -2.222973 -1.071373 2.239604
S -2.289534 -1.453136 -0.149061