23

C -0.842406 0.595473 0.172133
C 0.357153 1.066446 -0.437191
C 0.923976 2.363232 0.069435
C 1.072220 0.286406 -1.337977
O -1.515518 1.205724 1.004713
O -1.237599 -0.648710 -0.248475
C -2.473270 -1.139797 0.262539
C -3.656840 -0.579096 -0.500245
H 0.145404 3.110648 0.224818
H 1.446293 2.244224 1.026736
H 1.646327 2.765851 -0.642102
H 1.801131 0.779979 -1.966908
H 0.580051 -0.557834 -1.794535
H -2.417454 -2.221099 0.146277
H -2.549101 -0.904931 1.323050
H -4.584404 -1.009752 -0.122300
H -3.574671 -0.817737 -1.560536
H -3.703780 0.502378 -0.384860
C 2.000888 -0.949944 1.350394
H 1.622431 -1.929240 1.640996
H 1.162647 -0.242790 1.354743
H 2.726538 -0.619856 2.092532
S 2.714576 -0.963267 -0.303896