23

C -1.193619 0.910841 0.013757
C 0.116088 1.325157 0.394083
C 0.490654 2.750735 0.099852
C 1.065384 0.410341 0.824832
O -2.077818 1.641658 -0.434572
O -1.439330 -0.423885 0.184257
C -2.748853 -0.873613 -0.147121
C -2.798920 -2.362025 0.108630
H -0.277378 3.450519 0.432689
H 1.424496 3.008870 0.600925
H 0.635486 2.930399 -0.972028
H 0.737923 -0.560757 1.167172
H 1.949976 0.790330 1.321570
H -3.482400 -0.341905 0.461071
H -2.959835 -0.643818 -1.192454
H -2.062387 -2.881827 -0.503478
H -3.787097 -2.748958 -0.137538
H -2.594496 -2.580245 1.156416
C 3.304229 -1.529931 0.436279
H 3.620801 -0.897386 1.268214
H 4.193122 -1.986510 0.003957
H 2.672470 -2.323816 0.835998
S 2.416045 -0.546632 -0.801366