23

C -0.648057 -0.093216 0.669581
C 0.381458 -1.019357 0.326308
C 0.220257 -1.955994 -0.840377
C 1.599354 -0.908125 0.984499
O -0.611263 0.780987 1.537058
O -1.782254 -0.254957 -0.081525
C -2.865410 0.622664 0.207703
C -3.991959 0.288623 -0.742413
H 1.006844 -2.711713 -0.820364
H -0.740349 -2.471803 -0.828741
H 0.292801 -1.441719 -1.805874
H 2.286155 -1.742430 0.940849
H 1.626142 -0.341281 1.902956
H -3.171963 0.494032 1.246970
H -2.538085 1.656334 0.086937
H -4.843780 0.941034 -0.553655
H -3.676165 0.424583 -1.776374
H -4.313206 -0.744294 -0.611448
C 1.853207 1.352931 -1.126231
H 0.886130 0.849088 -1.008413
H 2.112539 1.343835 -2.184070
H 1.740417 2.386581 -0.801200
S 3.074223 0.464022 -0.144142