23

C 0.755276 -0.017351 0.305015
C -0.293895 0.949410 0.317851
C -0.335555 2.059728 -0.697069
C -1.359691 0.738737 1.182776
O 0.858996 -1.017304 1.016932
O 1.722802 0.265667 -0.625895
C 2.859158 -0.592891 -0.661925
C 3.875154 -0.215453 0.397377
H -1.085596 2.797474 -0.408276
H 0.621682 2.573527 -0.789615
H -0.603117 1.704139 -1.698863
H -2.012525 1.571061 1.407757
H -1.223617 0.033252 1.988587
H 2.539239 -1.626672 -0.542565
H 3.277728 -0.468018 -1.659425
H 4.756410 -0.852089 0.316032
H 4.187542 0.821325 0.273028
H 3.448658 -0.338100 1.391494
C -2.107598 -1.157766 -1.157951
H -1.117734 -0.685367 -1.157070
H -2.568021 -0.976985 -2.128367
H -1.972849 -2.230950 -1.027771
S -3.078704 -0.430999 0.174395