23

C -0.853290 -1.079014 0.537818
C 0.526132 -1.357938 0.316910
C 1.284397 -0.775247 -0.686461
C 2.588929 -1.403403 -1.094755
O -1.565235 -1.573953 1.410855
O -1.378770 -0.172517 -0.336910
C -2.745130 0.180310 -0.144393
C -3.097043 1.220125 -1.182445
H 0.737464 -0.297484 -1.486383
H 3.199972 -0.720377 -1.682367
H 3.160538 -1.714121 -0.220414
H 2.390687 -2.290999 -1.702045
H -2.879716 0.567792 0.866648
H -3.370014 -0.708510 -0.243476
H -4.137315 1.522843 -1.068690
H -2.466462 2.101917 -1.070851
H -2.961563 0.822428 -2.187760
C 1.002752 1.640180 1.338744
H 0.531248 0.691355 1.620979
H 0.217901 2.343078 1.059805
H 1.524308 2.028880 2.212285
S 2.148417 1.318144 -0.015214
H 0.989835 -2.015438 1.041630