23

C 1.101814 0.054690 0.337928
C 0.089042 0.941408 -0.126156
C -1.213634 0.836682 0.324864
C -2.167023 1.977677 0.105373
O 0.981933 -0.851565 1.157436
O 2.318817 0.305503 -0.233365
C 3.401835 -0.514164 0.197256
C 4.639964 -0.064389 -0.542558
H -1.367100 0.259257 1.229445
H -1.913287 2.791534 0.791239
H -2.082374 2.359440 -0.911756
H -3.200554 1.692928 0.287189
H 3.526003 -0.413996 1.276608
H 3.172148 -1.559812 -0.012250
H 5.494138 -0.668328 -0.238620
H 4.506535 -0.172993 -1.618423
H 4.861065 0.979907 -0.324164
C -3.859728 -0.885398 0.353060
H -3.548326 -0.485704 1.322736
H -4.228156 -1.897385 0.516632
H -4.686736 -0.275284 -0.010166
S -2.452691 -0.872950 -0.793521
H 0.350083 1.647083 -0.903298