23

C 0.977688 0.355824 0.738795
C -0.296065 0.994541 0.757329
C -1.151942 1.059736 -0.329865
C -2.252920 2.084339 -0.353356
O 1.762869 0.282339 1.682680
O 1.296169 -0.202482 -0.467379
C 2.582971 -0.805882 -0.582680
C 3.659787 0.225270 -0.853676
H -0.722957 0.826182 -1.293673
H -2.999167 1.858074 -1.113009
H -2.750553 2.141308 0.614495
H -1.829123 3.067987 -0.574532
H 2.494773 -1.500799 -1.416142
H 2.802879 -1.369859 0.322240
H 4.623427 -0.266518 -0.987888
H 3.430979 0.785681 -1.759961
H 3.737503 0.920180 -0.019278
C -1.541982 -1.952348 0.575198
H -0.834624 -1.336086 1.143068
H -0.974695 -2.675542 -0.010202
H -2.162965 -2.493199 1.288021
S -2.534332 -0.859458 -0.459061
H -0.603691 1.386177 1.718957