23

C 0.901368 -0.374582 0.844322
C 0.223690 0.638598 0.089497
C -0.999934 1.104353 0.512344
C -1.570969 2.380784 -0.031310
O 0.504458 -0.853166 1.901127
O 2.088268 -0.878382 0.391710
C 2.669261 -0.453010 -0.839454
C 3.434955 0.846297 -0.691946
H -1.295544 0.840858 1.517728
H -1.085282 3.229906 0.458744
H -1.393668 2.464308 -1.103099
H -2.641186 2.452637 0.150166
H 1.903878 -0.389172 -1.613391
H 3.347941 -1.258153 -1.116230
H 3.905413 1.108596 -1.639458
H 2.777074 1.661681 -0.395120
H 4.214833 0.737878 0.061198
C -1.708036 -1.747879 -0.846020
H -0.669546 -1.391728 -0.854053
H -1.951237 -2.081971 -1.854006
H -1.766124 -2.604198 -0.174091
S -2.776261 -0.392584 -0.322582
H 0.629818 0.995722 -0.844367