29

C 0.310638 0.988741 -0.251810
C -0.248789 -0.156170 0.351040
C -1.272408 -0.890723 -0.452600
O 0.311498 1.293361 -1.454590
C -0.315179 -0.263281 1.852440
H -1.118698 -0.652532 -1.503930
C -1.277585 -2.406543 -0.277950
C -2.833452 1.435144 -0.108510
H -2.146123 1.758956 0.671700
H -3.814323 1.870402 0.070740
H -2.458563 1.765745 -1.074910
S -3.022479 -0.355366 -0.076550
O 0.985307 1.805512 0.635230
C 1.708265 2.877394 0.061660
H 1.112303 -1.102888 0.077250
S 2.367884 -1.872855 -0.090760
C 3.395661 -0.376353 -0.201280
H 3.369240 0.182697 0.731440
H 4.421412 -0.671041 -0.409780
H 3.041630 0.264256 -1.006380
H 2.173834 3.407185 0.889200
H 2.478325 2.515465 -0.620570
H 1.051003 3.553072 -0.484790
H -1.132150 0.322568 2.293630
H -0.468737 -1.300241 2.160670
H 0.613640 0.073401 2.311760
H -2.063114 -2.867604 -0.878440
H -0.320054 -2.820691 -0.596030
H -1.443464 -2.687453 0.762330