23

C -0.048542 0.983074 0.509377
C 0.207931 -0.060711 -0.404834
C 1.095219 -1.177656 0.030203
O 0.171735 0.969952 1.725991
H 0.201697 0.158453 -1.463485
H 0.799112 -2.129512 -0.419438
H 1.049471 -1.292721 1.112542
C 3.261206 0.535787 0.365162
H 4.297338 0.769621 0.130980
H 3.139586 0.453214 1.443098
H 2.617484 1.328844 -0.011203
S 2.861169 -1.023306 -0.441868
O -0.681474 2.126278 0.062699
C -1.080102 2.222045 -1.290804
H -1.158869 -0.896182 -0.295455
S -2.417116 -1.709141 -0.106827
C -3.380899 -0.239796 0.368806
H -4.069246 -0.493586 1.171390
H -2.703275 0.536114 0.722712
H -3.951172 0.147774 -0.472661
H -1.733153 1.392286 -1.569395
H -1.625488 3.157620 -1.385356
H -0.219308 2.240927 -1.961598