29

C -0.144500 1.277300 -0.279488
C -0.130199 -0.036990 0.227772
C -0.871418 -1.062590 -0.566018
O -0.393300 1.647310 -1.437048
C 0.034711 -0.260080 1.710402
H -0.976199 -0.697250 -1.586438
C -0.239548 -2.450740 -0.596248
C -3.176209 0.375269 0.171762
H -2.588780 0.913619 0.914022
H -4.219079 0.355208 0.480932
H -3.090289 0.881639 -0.787568
S -2.615378 -1.330971 0.040972
O 0.273200 2.219120 0.639342
C 0.449919 3.532970 0.141692
H 1.464871 -0.176969 -0.290028
S 2.907561 -0.376768 -0.597078
C 3.161862 -1.622628 0.702412
H 2.366042 -2.364649 0.673702
H 4.111402 -2.123178 0.528042
H 3.181892 -1.163028 1.687882
H 0.782439 4.134271 0.984152
H 1.201479 3.559831 -0.647378
H -0.482281 3.936380 -0.252678
H -0.833879 0.064990 2.297472
H 0.183982 -1.319430 1.926552
H 0.903541 0.273981 2.097842
H -0.847997 -3.148250 -1.174078
H 0.747912 -2.390929 -1.055668
H -0.126888 -2.858910 0.408922