23

C 0.512692 -0.994254 0.034327
C -0.203481 -0.052385 -0.729296
C -1.403423 0.593431 -0.132266
O 0.454540 -1.177456 1.255068
H -0.165294 -0.164867 -1.805636
H -1.630424 1.546480 -0.615741
H -1.243742 0.781002 0.930454
C -4.120214 0.645648 0.485265
H -3.853540 0.846890 1.521500
H -5.086977 0.148062 0.457691
H -4.188806 1.584981 -0.061269
S -2.905897 -0.447132 -0.282480
O 1.426960 -1.708150 -0.711241
C 2.316757 -2.526642 0.025062
H 0.810393 1.214290 -0.477921
S 1.759436 2.316085 -0.113981
C 3.062550 1.129646 0.339834
H 3.314104 0.493830 -0.506649
H 2.733404 0.501394 1.165062
H 3.950612 1.679059 0.643137
H 1.779573 -3.276057 0.605345
H 2.955698 -3.015818 -0.705677
H 2.927075 -1.930315 0.704902