22

C -1.000302 -1.813533 0.025984
C 0.082808 -1.009233 0.395765
C 1.146458 -0.841372 -0.670801
O -1.305411 -2.177780 -1.134652
C 0.449702 -0.897705 1.852061
H 1.558456 -1.810342 -0.971562
H 0.714673 -0.400524 -1.572976
C 1.892210 1.778756 -0.095519
H 1.193155 1.837479 0.736190
H 1.376687 2.042943 -1.017995
H 2.711084 2.475359 0.071414
S 2.608446 0.131116 -0.230282
H -1.676217 -2.095225 0.858625
H -0.734940 0.321313 0.126427
S -1.524169 1.599374 -0.169067
C -3.123299 0.797989 0.137974
H -3.633649 0.562220 -0.793501
H -2.955745 -0.130197 0.686059
H -3.759458 1.444096 0.738247
H 0.732982 0.120736 2.133401
H -0.405736 -1.178460 2.470153
H 1.288102 -1.544400 2.129533