23

C 0.933606 -1.145730 -0.123768
C -0.129623 -0.797812 -0.986886
C -1.470853 -1.406507 -0.731095
O 0.868542 -1.653453 1.000054
H 0.148120 -0.649287 -2.023641
H -1.403065 -2.190813 0.024025
H -1.896310 -1.845986 -1.633382
C -2.101276 0.144984 1.459928
H -2.714303 0.927439 1.902350
H -1.085483 0.513961 1.328167
H -2.096565 -0.726499 2.112480
S -2.796929 -0.269738 -0.147653
O 2.164580 -0.796331 -0.634550
C 3.265977 -0.971485 0.237943
H -0.081007 0.807600 -0.760223
S 0.147834 2.301565 -0.570453
C 1.423742 2.055386 0.701756
H 2.407977 1.928706 0.255997
H 1.443312 2.914324 1.368808
H 1.192149 1.165379 1.287528
H 3.382331 -2.016146 0.524442
H 4.144085 -0.639897 -0.310268
H 3.149862 -0.372762 1.142122