29

C 0.396893 0.995141 0.644963
C -0.219863 -0.269602 0.565895
C -0.996953 -0.661136 -0.657079
O 0.944212 1.512026 1.630295
C -0.440747 -1.025360 1.852881
H -0.432276 -0.389626 -1.551000
C -1.296707 -2.156234 -0.701360
C -3.352642 0.223366 0.669766
H -4.292111 0.766841 0.594056
H -2.719602 0.705582 1.412262
H -3.562642 -0.800872 0.973555
S -2.572596 0.290689 -0.952702
O 0.444758 1.659351 -0.562964
C 1.188374 2.862111 -0.577472
H 1.178645 -1.003551 0.177157
S 2.471835 -1.692770 -0.152662
C 3.284510 -0.134318 -0.626549
H 2.821258 0.291450 -1.514021
H 3.217692 0.587167 0.185233
H 4.332646 -0.334631 -0.836431
H 1.111551 3.254479 -1.588558
H 0.786502 3.586482 0.130207
H 2.236099 2.682231 -0.333119
H -0.053266 -2.050160 1.793366
H 0.092137 -0.525523 2.660236
H -1.490716 -1.106021 2.146624
H -1.747974 -2.432809 -1.652733
H -0.373794 -2.726676 -0.573317
H -1.980914 -2.445890 0.097403