23

C 1.410618 -0.906462 0.086721
C 0.121516 -0.990884 -0.480275
C -0.967389 -1.620133 0.325770
O 1.729731 -0.976450 1.277750
H 0.097779 -1.147343 -1.552460
H -0.616368 -1.817963 1.338490
H -1.305514 -2.566776 -0.101953
C -2.941102 -0.380588 -1.158223
H -3.870711 0.183641 -1.187014
H -3.089164 -1.338301 -1.656041
H -2.162285 0.186969 -1.664859
S -2.494310 -0.626808 0.568363
O 2.380586 -0.629859 -0.851800
C 3.668898 -0.334543 -0.342439
H -0.024887 0.637001 -0.575199
S -0.095093 2.152406 -0.577814
C -0.029285 2.266318 1.235751
H -0.507317 3.188204 1.559775
H -0.568360 1.421818 1.662177
H 0.997138 2.256712 1.596092
H 4.080431 -1.178352 0.210528
H 4.294969 -0.121685 -1.205068
H 3.642661 0.534729 0.315318