22

C 0.513586 1.888465 0.464100
C -0.006162 0.589246 0.594844
C -0.640309 -0.043146 -0.602799
O 0.687265 2.548642 -0.581494
C -0.438342 0.107954 1.955353
H -0.273493 0.442351 -1.505862
H -0.405342 -1.109857 -0.673863
C -2.941310 -1.481675 0.101026
H -2.604121 -1.510535 1.134376
H -2.526090 -2.328150 -0.442913
H -4.027159 -1.544300 0.078068
S -2.472142 0.066750 -0.700212
H 0.864061 2.329402 1.420122
H 1.337229 -0.158579 0.591819
S 2.540185 -1.115132 0.410269
C 2.633600 -0.701022 -1.361000
H 2.211410 0.290195 -1.520900
H 3.670826 -0.698339 -1.688295
H 2.077602 -1.418221 -1.961956
H -0.236121 -0.962817 2.076795
H 0.105755 0.635886 2.741336
H -1.507741 0.259005 2.133188