23

C -0.159654 0.894876 0.041148
C 0.289642 -0.262466 -0.620446
C 1.204716 -1.196264 0.087991
O -0.175835 1.116782 1.257638
H 0.352616 -0.212523 -1.700720
H 1.045089 -2.237186 -0.206385
H 1.043426 -1.129998 1.164131
C 3.181410 0.746956 0.349582
H 2.508545 1.396910 -0.207275
H 4.209764 1.050115 0.166373
H 2.964057 0.825397 1.413000
S 3.003752 -0.953360 -0.215626
O -0.703745 1.831784 -0.818210
C -1.368813 2.918204 -0.201166
H -1.052091 -1.192403 -0.340076
S -2.263188 -1.979340 0.012354
C -3.279001 -0.479226 0.177541
H -2.843123 0.314894 -0.427427
H -4.287634 -0.676164 -0.177391
H -3.325763 -0.147326 1.212399
H -0.691621 3.493599 0.429055
H -1.741922 3.544685 -1.007374
H -2.203526 2.572183 0.410711