22

C -0.606630 1.673269 -0.444912
C 0.036536 0.578645 0.154004
C 0.841129 -0.332855 -0.713729
O -1.196259 2.614497 0.127012
C 0.370185 0.628567 1.620725
H 0.723727 -1.381641 -0.422613
H 0.519464 -0.247072 -1.753104
C 3.200786 -1.128842 0.587739
H 2.807695 -0.803251 1.547645
H 4.287615 -1.090528 0.615766
H 2.888236 -2.152903 0.391537
S 2.658778 -0.043391 -0.749255
H -0.639371 1.633881 -1.553671
H -1.229979 -0.270795 0.358879
S -2.431389 -1.193912 0.584127
C -3.053262 -0.832477 -1.083526
H -3.094412 -1.734127 -1.690169
H -2.376305 -0.120803 -1.562228
H -4.045847 -0.389979 -1.041289
H 0.345874 -0.373329 2.063356
H 1.366626 1.043580 1.803094
H -0.353937 1.250000 2.146949