22

C 0.407338 1.810054 0.715651
C -0.273551 1.192797 -0.354575
C -1.677688 0.721618 -0.093465
O 0.123905 1.770489 1.928422
C 0.003948 1.661808 -1.763102
H -1.965769 0.944225 0.934078
H -2.380701 1.229045 -0.758742
C -1.237835 -1.704547 1.127162
H -1.751137 -1.346271 2.017982
H -0.192546 -1.401607 1.147016
H -1.294021 -2.790464 1.089773
S -2.028741 -1.054150 -0.354668
H 1.335254 2.338328 0.412378
H 0.692092 0.017517 -0.472138
S 1.786401 -1.076936 -0.811672
C 2.697585 -0.744228 0.725739
H 3.737038 -1.043328 0.608970
H 2.671092 0.321250 0.952565
H 2.271789 -1.289326 1.567361
H -0.706127 2.427176 -2.091977
H 1.011553 2.073300 -1.846490
H -0.061094 0.828595 -2.471182