29

C -0.223820 0.946490 0.685121
C 0.182719 -0.397790 0.618361
C 0.952799 -1.021370 -0.501849
O -0.753180 1.506890 1.660341
C 0.286739 -1.120620 1.936861
H 0.776689 -2.100600 -0.437169
C 0.631189 -0.599070 -1.932429
C 3.033690 0.768269 0.128651
H 2.687900 1.391789 -0.693139
H 4.097640 0.931978 0.285911
H 2.487670 1.032349 1.033351
S 2.805199 -0.978641 -0.243519
O -0.064930 1.677820 -0.476329
C -0.671310 2.955100 -0.488799
H -1.355571 -1.036320 0.284561
S -2.687941 -1.553549 -0.008499
C -3.217541 0.029351 -0.731209
H -3.684840 0.665711 0.017051
H -2.347151 0.543141 -1.137699
H -3.927121 -0.155299 -1.533819
H -0.262669 3.601130 0.287501
H -0.461770 3.380270 -1.467619
H -1.750720 2.881380 -0.345939
H -0.482021 -0.776220 2.627371
H 0.152759 -2.198820 1.795621
H 1.259479 -0.983831 2.425481
H 1.060669 -1.316671 -2.631409
H -0.451241 -0.573090 -2.076549
H 1.022269 0.388319 -2.161599