23

C 0.296431 0.907042 0.695218
C -0.312173 -0.359648 0.601763
C -1.102310 -0.774430 -0.586333
O 0.860463 1.396111 1.681555
H -0.561983 -0.806311 1.556694
H -1.204127 -1.860712 -0.626246
H -0.623538 -0.455257 -1.511614
C -3.526887 -0.819581 0.761137
H -3.475599 -1.907215 0.729157
H -4.568954 -0.513586 0.817012
H -3.000653 -0.455259 1.641404
S -2.819787 -0.107474 -0.734676
O 0.298243 1.609783 -0.491597
C 1.083731 2.787383 -0.509311
H 1.063580 -1.261216 0.385531
S 2.335744 -1.970772 0.062113
C 3.100247 -0.464038 -0.611403
H 2.336398 0.145012 -1.092055
H 3.575625 0.121075 0.173066
H 3.848959 -0.737291 -1.351022
H 2.134261 2.560140 -0.321295
H 0.973342 3.212210 -1.503727
H 0.743487 3.502817 0.238018