23

C -0.048062 1.454952 0.091117
C 1.281887 1.517457 -0.431079
C 1.807057 0.582081 -1.297741
O -0.565258 2.271097 0.848936
O -0.754444 0.371613 -0.334624
C -2.090541 0.255073 0.143359
C -2.690671 -1.004776 -0.441093
C -4.127895 -1.196610 0.025571
H 2.735682 0.803064 -1.802283
H 1.135607 -0.069318 -1.834259
H -2.086903 0.215248 1.235014
H -2.665595 1.135207 -0.152903
H -2.652029 -0.944083 -1.530370
H -2.078946 -1.859433 -0.145472
H -4.560015 -2.102850 -0.395868
H -4.751761 -0.354728 -0.277996
H -4.178139 -1.274650 1.112511
S 2.794736 -1.279326 -0.176872
C 2.081154 -0.940708 1.442617
H 1.297102 -1.651664 1.702288
H 2.838644 -0.957773 2.225019
H 1.639070 0.064156 1.421818
H 1.891548 2.319544 -0.038539