23

C -0.226691 1.461752 -0.130895
C 0.992785 1.372390 -0.872147
C 1.425844 0.216133 -1.487902
O -0.667538 2.467998 0.418470
O -0.915740 0.289891 -0.071665
C -2.145213 0.304567 0.648044
C -2.728356 -1.091509 0.598231
C -3.063911 -1.540670 -0.818179
H 2.244184 0.275127 -2.189892
H 0.714628 -0.572617 -1.676251
H -1.959968 0.620995 1.675494
H -2.824998 1.027925 0.191319
H -2.021431 -1.785998 1.057709
H -3.627540 -1.097957 1.217349
H -3.505089 -2.536735 -0.821419
H -2.168917 -1.564388 -1.439139
H -3.776031 -0.854943 -1.280773
S 2.688213 -1.195977 -0.043754
C 2.197336 -0.399917 1.496557
H 1.714589 0.555374 1.252435
H 1.488654 -1.003646 2.063024
H 3.058309 -0.188673 2.129183
H 1.607657 2.261578 -0.855653