23

C 0.497808 -0.789976 0.208781
C -0.657176 -1.353626 -0.417844
C -1.912433 -1.103366 0.085436
O 0.520828 -0.074880 1.203637
O 1.655017 -1.142194 -0.425948
C 2.868519 -0.604390 0.092902
C 3.135793 0.796512 -0.425463
C 4.455515 1.336389 0.110460
H -2.756434 -1.674408 -0.273948
H -1.999535 -0.734170 1.098038
H 2.836671 -0.608581 1.182541
H 3.651720 -1.286925 -0.237346
H 3.152158 0.770474 -1.516852
H 2.310682 1.444237 -0.126632
H 4.656245 2.336810 -0.270009
H 5.287627 0.693512 -0.181152
H 4.440519 1.388597 1.200105
S -3.055023 0.882777 -0.630411
C -4.343185 0.631059 0.622890
H -5.293057 1.057453 0.303695
H -4.070063 1.082318 1.576699
H -4.497469 -0.438506 0.789145
H -0.514492 -1.894277 -1.342191