23

C -0.281936 1.580021 0.090925
C 1.047510 1.662135 -0.428224
C 1.583942 0.727445 -1.290714
O -0.810483 2.378816 0.860248
O -0.972431 0.493484 -0.350273
C -2.291793 0.322452 0.158728
C -2.853791 -0.955359 -0.427132
C -2.064863 -2.191706 -0.014546
H 2.518377 0.950507 -1.784011
H 0.917273 0.082251 -1.840588
H -2.252533 0.266201 1.249446
H -2.902161 1.185566 -0.110463
H -3.890356 -1.043734 -0.095903
H -2.875299 -0.866339 -1.515423
H -2.510629 -3.097395 -0.424370
H -2.042893 -2.288605 1.072555
H -1.034770 -2.131536 -0.366117
S 2.533243 -1.138847 -0.165629
C 1.758013 -0.823392 1.430153
H 0.927211 -1.502013 1.623926
H 2.475814 -0.907932 2.244791
H 1.367765 0.202480 1.427571
H 1.651127 2.464115 -0.026292