23

C 0.411492 -1.032445 0.130026
C -0.742747 -1.344155 -0.656768
C -1.977469 -1.481960 -0.062174
O 0.445152 -0.851577 1.340906
O 1.546110 -0.965764 -0.629880
C 2.782297 -0.646972 0.008143
C 3.187507 0.784436 -0.293700
C 2.225120 1.808291 0.292926
H -2.791867 -1.908586 -0.627310
H -2.018921 -1.637576 1.005081
H 2.688690 -0.806460 1.080925
H 3.517184 -1.344896 -0.392535
H 4.192610 0.938471 0.105463
H 3.254744 0.908589 -1.376827
H 2.187039 1.726266 1.379745
H 1.214499 1.653252 -0.086868
H 2.528302 2.823322 0.037503
S -3.137163 0.601518 0.159917
C -1.789694 1.646535 -0.418177
H -0.980045 0.995018 -0.776067
H -2.098378 2.284607 -1.245287
H -1.389084 2.275641 0.376582
H -0.619287 -1.395584 -1.728950