23

C -0.480049 1.691898 0.135819
C 0.890081 1.598848 -0.278761
C 1.448978 0.760844 -1.222967
O -0.925616 2.653237 0.755428
O -1.402443 0.742886 -0.200564
C -1.068789 -0.637308 -0.366247
C -2.109512 -1.475802 0.349392
C -3.511695 -1.296369 -0.217231
H 2.375971 1.069729 -1.680634
H 0.825126 0.147527 -1.853931
H -1.070572 -0.873996 -1.434178
H -0.074933 -0.835370 0.026378
H -1.802727 -2.521073 0.266535
H -2.093159 -1.221748 1.411656
H -4.232429 -1.922690 0.307302
H -3.536675 -1.567185 -1.274330
H -3.836200 -0.260248 -0.128097
S 2.580630 -1.124501 -0.282897
C 2.068116 -0.849372 1.422408
H 1.450254 -1.664186 1.799694
H 2.922970 -0.725991 2.085451
H 1.474055 0.076013 1.460878
H 1.509932 2.365820 0.166246