102
Comment line
C 36.8666 44.4743 38.2609
H 37.8434 44.0402 38.6188
H 36.1305 43.8774 38.7751
H 36.7658 44.4837 37.1936
C 36.8795 45.9114 38.6285
H 35.951 46.4719 38.3946
C 37.8456 46.5311 39.3288
H 38.7631 45.959 39.6471
C 37.9015 47.9734 39.6504
H 36.8887 48.3812 39.5246
H 38.1612 48.008 40.6716
C 39.0829 48.6888 39.0291
H 39.9481 48.0846 39.1
H 38.8117 48.7336 38.0124
C 39.2868 50.0016 39.725
H 39.2833 50.0282 40.8001
C 39.3347 51.1843 39.0782
H 39.2312 51.2126 38.085
C 39.4577 52.5832 39.7778
H 38.4834 53.0574 39.7265
H 39.7378 52.5174 40.8072
C 40.4257 53.4453 38.8592
H 41.0683 52.6808 38.4454
H 40.012 54.0074 38.0145
C 41.2663 54.3871 39.7728
H 41.5105 53.9673 40.7064
C 41.783 55.5984 39.4428
H 41.6121 56.1152 38.5095
C 42.6153 56.4683 40.4328
H 43.6652 56.4679 40.2306
H 42.5465 56.0125 41.454
C 41.8879 57.8719 40.3674
H 40.8276 57.7456 40.7507
H 41.7524 58.3093 39.2946
C 42.6371 58.8154 41.2614
H 42.8475 58.5069 42.2083
C 42.9446 60.06 40.8289
H 42.7753 60.3264 39.8253
C 43.5124 61.1046 41.71
H 42.7485 61.8066 41.7634
H 43.6482 60.6297 42.7092
C 44.6806 61.8973 41.1199
H 44.5874 62.9272 41.4365
H 44.5475 61.885 40.0642
C 46.1115 61.4763 41.557
H 46.4976 61.4874 42.5337
C 46.9754 60.8746 40.7402
H 46.8754 60.7572 39.6335
C 48.3512 60.3229 41.2208
H 49.1007 60.9442 40.859
H 48.3888 60.4565 42.3188
C 48.5551 58.837 40.8564
H 47.8824 58.1767 41.4218
H 48.2564 58.702 39.8636
C 50.0627 58.4912 40.9838
H 50.728 58.7816 40.1233
C 50.7525 57.9207 42.0289
H 50.151 57.7052 42.9699
C 52.2276 57.4469 41.8876
H 52.2368 56.3753 41.7792
H 52.856 57.8683 41.0438
C 52.9468 57.8782 43.1863
H 52.5387 57.4268 44.0789
H 52.8862 58.9694 43.3086
C 54.423 57.5715 43.334
H 54.6383 56.5773 43.2473
C 55.3517 58.5458 43.4657
H 55.1759 59.6214 43.6771
C 56.8441 58.2601 43.5569
H 57.494 58.6529 42.879
H 56.9924 57.1892 43.4476
C 57.4301 58.6396 44.8974
H 56.8819 58.2754 45.8059
H 58.422 58.1363 45.0579
C 57.6944 60.11 45.1146
H 58.4334 60.6239 44.5376
C 57.0011 60.8897 46.0123
H 56.2294 60.3835 46.5444
C 57.3 62.3509 46.2477
H 56.7831 62.6213 47.1787
H 58.3515 62.3462 46.278
C 56.7808 63.2555 45.1636
H 57.1028 62.8091 44.2169
H 57.3625 64.137 45.166
C 55.2864 63.4187 45.2358
H 54.9718 63.7982 46.1757
C 54.3514 63.1489 44.2644
H 54.6167 62.7335 43.3138
C 52.8847 63.3711 44.4982
H 52.7411 63.7793 45.51
H 52.6545 64.2398 43.8451
C 52.0824 62.0701 44.3639
H 52.4314 61.4437 43.5634
H 52.3136 61.5836 45.3134
C 50.5803 62.3497 44.086
H 49.9646 61.6309 44.5769
C 50.1669 63.3145 43.3627
H 50.8289 64.1213 42.9844
C 48.7412 63.4903 42.9201
H 48.5107 63.2365 41.8764
H 48.0615 62.8707 43.5415
H 48.4369 64.5175 43.1212
