17

C 3.043119 -0.116667 0.000365
C 1.685184 -0.791358 -0.000285
C 0.522654 0.170924 -0.000148
C -0.826036 -0.450051 -0.000039
C -1.935736 0.283927 0.000061
C -3.322393 -0.257562 0.000141
O 0.685029 1.374711 -0.000161
H 3.839145 -0.859150 0.000079
H 3.162008 0.515092 -0.878730
H 3.161666 0.514044 0.880262
H 1.559904 -1.445817 0.867803
H 1.560315 -1.444933 -0.869104
H -0.873682 -1.533419 -0.000042
H -1.824254 1.364414 0.000016
H -3.867899 0.101219 -0.874689
H -3.330307 -1.345664 0.000161
H -3.867892 0.101245 0.874962