18

C -1.160761 -0.628756 -0.406362
C -0.475904 0.407925 0.076416
C 0.974018 0.531829 -0.265739
O 1.782617 -0.535510 -0.197770
O 1.444910 1.577328 -0.642746
C 1.495260 -1.677000 0.616040
H 2.450042 -2.004457 1.017088
H 0.820513 -1.423377 1.428695
H 1.063366 -2.471442 0.012302
H -0.609846 -1.384991 -0.956048
C -2.630086 -0.871317 -0.311677
C -1.036970 1.589616 0.811402
H -0.912813 2.493817 0.215581
H -2.090717 1.463698 1.038574
H -0.499556 1.745839 1.747910
H -2.816397 -1.832364 0.171177
H -3.156985 -0.099065 0.240585
H -3.061172 -0.935982 -1.312221