14

C 1.312579 -0.734221 0.000069
C 0.062951 0.040129 -0.000018
O 2.418535 -0.241163 0.000094
C -1.069661 -0.673486 -0.000004
C -2.470035 -0.169541 -0.000047
H 1.189450 -1.831499 0.000115
H -0.965311 -1.755549 0.000062
C 0.198028 1.530427 -0.000085
H -3.000560 -0.550929 0.874504
H -2.533251 0.914581 -0.000286
H -3.000664 -0.551334 -0.874356
H -0.764555 2.032662 -0.000412
H 0.761448 1.855832 0.875341
H 0.761987 1.855698 -0.875211