14

C 1.590656 0.175891 -0.000000
O 2.097329 -0.920862 0.000002
C 0.131847 0.412032 -0.000007
C -0.267919 1.682388 0.000002
C -0.755735 -0.796686 -0.000002
C -2.244360 -0.490955 0.000002
H 2.216190 1.084892 0.000004
H -1.312391 1.962621 0.000004
H 0.458243 2.486371 0.000001
H -0.493861 -1.407551 -0.867749
H -0.493855 -1.407542 0.867750
H -2.529538 0.083239 0.882147
H -2.529536 0.083260 -0.882131
H -2.820809 -1.414415 -0.000010