21

C -0.828335 1.409395 0.068758
C -1.042312 -0.078658 -0.002052
C 0.094371 -1.025869 0.050808
C 1.408043 -0.785000 0.034622
O -2.170030 -0.530659 -0.084383
C 2.161182 0.503480 -0.072233
H -1.783606 1.892983 0.252528
H -0.115452 1.672463 0.848043
H -0.429163 1.766307 -0.881986
H -0.235514 -2.056093 0.118462
H 2.039661 -1.664170 0.115096
H 2.354033 0.908086 0.924809
H 3.129838 0.322547 -0.534010
H 1.642743 1.263062 -0.647298
