21

C 1.306598 -0.632626 -0.073016
C 2.664362 -0.081386 -0.297447
C 3.059072 1.105836 0.139536
O 0.954762 -1.703475 -0.509364
O 0.524805 0.163784 0.655344
C -0.823138 -0.274169 0.887266
C -1.736631 0.046935 -0.284779
C -1.753973 1.543276 -0.575594
C -3.136231 -0.471699 0.028448
H 3.316835 -0.732975 -0.862559
H 4.060132 1.465005 -0.055472
H 2.393427 1.747349 0.700646
H -0.817061 -1.342479 1.098816
H -1.141544 0.268496 1.777139
H -1.352293 -0.483052 -1.159628
H -2.397119 1.760372 -1.428551
H -2.140381 2.092139 0.286648
H -0.755505 1.918865 -0.797912
H -3.813575 -0.269651 -0.800873
H -3.132897 -1.546737 0.211278
H -3.536916 0.023193 0.916145