21

C -1.375996 0.285378 0.000003
C -2.300652 -0.875789 0.000003
C -3.612320 -0.692879 -0.000005
O -1.713505 1.444705 -0.000001
O -0.103907 -0.110218 0.000010
C 0.891763 0.925979 0.000010
C 2.261459 0.274208 -0.000002
C 2.484437 -0.556065 -1.260357
C 2.484455 -0.556076 1.260341
H -1.849590 -1.858355 0.000009
H -4.297937 -1.528413 -0.000005
H -4.026841 0.307053 -0.000010
H 0.745190 1.546157 -0.885260
H 0.745201 1.546145 0.885291
H 2.973996 1.103794 -0.000003
H 3.497806 -0.956873 -1.279341
H 1.789667 -1.396264 -1.293059
H 2.337697 0.042756 -2.160134
H 3.497825 -0.956884 1.279308
H 2.337727 0.042736 2.160126
H 1.789687 -1.396277 1.293045