21

C -1.295189 -0.243411 0.145602
C -2.541935 0.562178 0.157948
C -3.625037 0.137227 -0.474724
O -1.161425 -1.307455 -0.408310
O -0.327920 0.361318 0.838687
C 0.947850 -0.296367 0.894955
C 1.790669 -0.013333 -0.338472
C 3.106396 -0.774977 -0.216977
C 2.031976 1.481967 -0.510319
H -2.513474 1.496394 0.701256
H -4.539861 0.712779 -0.474730
H -3.614761 -0.804130 -1.009005
H 1.429700 0.107280 1.785209
H 0.788609 -1.366050 1.023536
H 1.244518 -0.389891 -1.206714
H 3.730449 -0.602833 -1.093512
H 3.662493 -0.438665 0.661176
H 2.939950 -1.848558 -0.122814
H 2.621991 1.674140 -1.406549
H 1.094815 2.031096 -0.595839
H 2.581955 1.877830 0.346888