21

C -1.306779 0.509030 -0.286904
C -2.657407 0.119773 0.186255
C -3.024099 -1.131028 0.425502
O -0.987796 1.660223 -0.467388
O -0.500955 -0.533961 -0.487770
C 0.852173 -0.291240 -0.903143
C 1.815919 -0.468387 0.258525
C 3.242341 -0.321146 -0.261430
C 1.532290 0.524003 1.380052
H -3.330406 0.953962 0.330522
H -4.021428 -1.359857 0.774995
H -2.339367 -1.955036 0.279364
H 1.051885 -1.022839 -1.684325
H 0.926832 0.712162 -1.320465
H 1.684306 -1.483316 0.643671
H 3.455238 -1.038968 -1.054321
H 3.401286 0.683131 -0.660374
H 3.960708 -0.479310 0.542385
H 1.645192 1.548581 1.019698
H 2.228430 0.373797 2.205427
H 0.520710 0.411562 1.771551