18

C -0.388829 0.888799 -0.156737
C -1.086533 -0.442064 -0.142481
C -1.849651 -0.740204 1.115363
C -1.060855 -1.216982 -1.216372
O -0.918979 1.884110 -0.580719
O 0.832614 0.979432 0.371281
C 1.578463 -0.188468 0.764440
C 2.450082 -0.666360 -0.372963
H -1.197059 -0.728669 1.990288
H -2.614672 0.021178 1.276701
H -2.329536 -1.713832 1.046948
H -1.598113 -2.156519 -1.231621
H -0.515155 -0.938821 -2.108541
H 2.176174 0.139248 1.611260
H 0.901589 -0.969886 1.103034
H 1.840983 -1.004328 -1.210755
H 3.104776 0.134501 -0.713145
H 3.065868 -1.499532 -0.036169