18

C -0.176615 -0.271849 -0.186268
C -1.557548 0.243982 0.056454
C -2.612813 -0.810401 0.190645
C -1.791060 1.548982 0.143772
O 0.076709 -1.451823 -0.252927
O 0.740669 0.684649 -0.327333
C 2.098708 0.261717 -0.540600
C 2.768126 -0.100118 0.766781
H -3.584835 -0.355903 0.366519
H -2.663906 -1.420402 -0.711560
H -2.380467 -1.483891 1.015895
H -2.792324 1.918965 0.321945
H -0.996526 2.273523 0.041470
H 2.100910 -0.575187 -1.235995
H 2.579463 1.116669 -1.008663
H 3.809704 -0.361232 0.582451
H 2.741062 0.743600 1.455059
H 2.275104 -0.952622 1.230252