18

C -0.845880 0.537374 -0.243512
C -2.192323 0.218306 0.290927
C -2.638915 -1.014935 0.480115
O -0.450649 1.671718 -0.373987
O -0.136692 -0.545876 -0.559278
C 1.205605 -0.373423 -1.048135
C 2.206149 -0.662527 0.052879
C 2.103631 0.305497 1.224095
H -2.790025 1.088540 0.525629
H -3.628547 -1.192013 0.878165
H -2.028897 -1.875888 0.243824
H 1.305874 -1.083067 -1.866258
H 1.316677 0.638805 -1.431139
H 2.064834 -1.688816 0.397138
H 3.201489 -0.611797 -0.393001
H 2.251687 1.333801 0.893272
H 2.852540 0.077369 1.981263
H 1.123493 0.244586 1.699012