18

C 1.222904 -0.549258 -0.015991
C 1.245744 0.922285 0.222640
C 2.367374 1.599321 0.020238
O 2.191828 -1.163774 -0.390193
O 0.090861 -1.227692 0.198411
C -1.132445 -0.596058 0.604984
C -1.850653 0.053608 -0.560364
C -3.165229 0.675199 -0.106651
H 0.352810 1.428950 0.553864
H 2.411960 2.666826 0.183959
H 3.264089 1.095411 -0.314941
H -0.942972 0.108635 1.414694
H -1.731446 -1.408427 1.012014
H -1.210133 0.814277 -1.011494
H -2.029045 -0.705637 -1.323314
H -3.692172 1.125389 -0.945847
H -3.818603 -0.076685 0.337421
H -2.992186 1.452403 0.638762