18

C 1.161988 0.199749 0.000002
C 2.327519 -0.718988 0.000001
C 3.562610 -0.241129 -0.000005
O 1.224169 1.405438 -0.000002
O 0.013326 -0.476915 0.000007
C -1.190790 0.305012 0.000008
C -2.366335 -0.643938 -0.000005
C -3.682266 0.123411 -0.000004
H 2.113030 -1.778603 0.000005
H 4.420988 -0.897916 -0.000006
H 3.737946 0.827000 -0.000009
H -1.193175 0.945762 0.883074
H -1.193167 0.945778 -0.883047
H -2.303040 -1.287716 0.878713
H -2.303033 -1.287703 -0.878733
H -4.530008 -0.559391 -0.000013
H -3.762930 0.759947 0.881940
H -3.762923 0.759961 -0.881938