18

C 1.059935 0.515707 -0.114407
C 1.814912 -0.745845 0.126298
C 3.126430 -0.699206 0.314041
O 1.588379 1.599787 -0.162446
O -0.263217 0.447112 -0.287176
C -0.983671 -0.797046 -0.241592
C -2.448912 -0.478735 -0.438934
C -3.024567 0.376012 0.682300
H 1.288541 -1.687486 0.144198
H 3.698165 -1.599623 0.489553
H 3.653686 0.245375 0.295352
H -0.822394 -1.271389 0.728092
H -0.617334 -1.453477 -1.030812
H -2.980932 -1.429533 -0.500686
H -2.572587 0.018826 -1.402443
H -2.917510 -0.127235 1.644468
H -2.511930 1.335113 0.744131
H -4.083765 0.568915 0.518888